{
  "completed_at": "20230213T214720Z",
  "completed_status": "Success",
  "created_at": "2023-02-13 21:45:53 +0000",
  "current_step": 6,
  "description": "",
  "eplusout_err": "Program Version,EnergyPlus, Version 9.2.0-921312fa1d, YMD=2023.02.13 21:46,\n   ** Warning ** ProcessScheduleInput: Schedule:Constant=\"ALWAYS ON CONTINUOUS\", Blank Schedule Type Limits Name input -- will not be validated.\n   ** Warning ** GetSurfaceData: Entered Zone Floor Areas differ from calculated Zone Floor Area(s).\n   **   ~~~   ** ...use Output:Diagnostics,DisplayExtraWarnings; to show more details on individual zones.\n   ** Warning ** CalculateZoneVolume: 1 zone is not fully enclosed. For more details use:  Output:Diagnostics,DisplayExtrawarnings; \n   ** Warning ** CheckUsedConstructions: There are 1 nominally unused constructions in input.\n   **   ~~~   ** For explicit details on each unused construction, use Output:Diagnostics,DisplayExtraWarnings;\n   ** Warning ** DetermineShadowingCombinations: There are 1 surfaces which are receiving surfaces and are non-convex.\n   **   ~~~   ** ...Shadowing values may be inaccurate. Check .shd report file for more surface shading details\n   **   ~~~   ** ...Add Output:Diagnostics,DisplayExtraWarnings; to see individual warnings for each surface.\n   ** Severe  ** DetermineShadowingCombinations: There are 1 surfaces which are casting surfaces and are non-convex.\n   **   ~~~   ** ...Shadowing values may be inaccurate. Check .shd report file for more surface shading details\n   **   ~~~   ** ...Add Output:Diagnostics,DisplayExtraWarnings; to see individual severes for each surface.\n   ** Warning ** The Standard Ratings is calculated for Coil:Cooling:DX:SingleSpeed = RES AC COOLING COIL but not at the AHRI test condition due to curve out of bound.\n   **   ~~~   **  Review the Standard Ratings calculations in the Engineering Reference for this coil type. Also, use Output:Diagnostics, DisplayExtraWarnings for further guidance.\n   ** Warning ** Check input. Pump nominal power or motor efficiency is set to 0, for pump=PUMP VARIABLE SPEED 1\n   ** Warning ** Meter:Custom=\"UNIT 1:ELECTRICITYCOOLING\", invalid Output Variable or Meter Name=\"UNITARY SYSTEM COOLING ANCILLARY ELECTRIC ENERGY\".\n   **   ~~~   ** ...will not be shown with the Meter results.\n   ** Warning ** Meter:Custom=\"UNIT 1:ELECTRICITYCOOLING\", invalid Output Variable or Meter Name=\"UNITARY SYSTEM COOLING ANCILLARY ELECTRIC ENERGY\".\n   **   ~~~   ** ...will not be shown with the Meter results.\n   ** Warning ** Meter:Custom=\"UNIT 1:ELECTRICITYCOOLING\", duplicate name=\"RES AC COOLING COIL:Cooling Coil Electric Energy\".\n   **   ~~~   ** ...only one value with this name will be shown with the Meter results.\n   ** Warning ** Meter:Custom=\"UNIT 1:ELECTRICITYCOOLING\", duplicate name=\"RES AC COOLING COIL:Cooling Coil Crankcase Heater Electric Energy\".\n   **   ~~~   ** ...only one value with this name will be shown with the Meter results.\n   ** Warning ** Meter:Custom=\"UNIT 1:ELECTRICITYFANSCOOLING\", duplicate name=\"RES AC CLG SUPPLY FAN:Fan Electric Energy\".\n   **   ~~~   ** ...only one value with this name will be shown with the Meter results.\n   ** Warning ** Output:Meter: invalid Key Name=\"DISTRICTCOOLING:FACILITY\" - not found.\n   ** Warning ** Output:Meter: invalid Key Name=\"DISTRICTHEATING:FACILITY\" - not found.\n   ** Warning ** Output:Meter:MeterFileOnly requested for \"Electricity:Facility\" (TimeStep), already on \"Output:Meter\". Will report to both eplusout.eso and eplusout.mtr\n   ************* Testing Individual Branch Integrity\n   ************* All Branches passed integrity testing\n   ************* Testing Individual Supply Air Path Integrity\n   ************* All Supply Air Paths passed integrity testing\n   ************* Testing Individual Return Air Path Integrity\n   ************* All Return Air Paths passed integrity testing\n   ************* No node connection errors were found.\n   ************* Beginning Simulation\n   ** Warning ** Processing Monthly Tabular Reports: Variable names not valid for this simulation\n   **   ~~~   ** ...use Output:Diagnostics,DisplayExtraWarnings; to show more details on individual variables.\n   ** Warning ** CalcDoe2DXCoil: Coil:Cooling:DX:SingleSpeed=\"RES AC COOLING COIL\" - Air volume flow rate per watt of rated total cooling capacity is out of range at 6.919E-005 m3/s/W.\n   **   ~~~   **  Environment=RUN PERIOD 1, at Simulation time=04/27 16:00 - 16:10\n   **   ~~~   ** Expected range for VolumeFlowPerRatedTotalCapacity=[2.684E-005--6.713E-005]\n   **   ~~~   ** Possible causes include inconsistent air flow rates in system components,\n   **   ~~~   ** or variable air volume [VAV] system using incorrect coil type.\n   ** Warning ** SimHVAC: Maximum iterations (20) exceeded for all HVAC loops, at RUN PERIOD 1, 04/28 13:20 - 13:22\n   **   ~~~   ** The solution for one or more of the Air Loop HVAC systems did not appear to converge\n   **   ~~~   ** ...use Output:Diagnostics,DisplayExtraWarnings; to show more details on each max iteration exceeded.\n   ** Warning ** SimHVAC: Maximum iterations (20) exceeded for all HVAC loops, at RUN PERIOD 1, 07/02 06:30 - 06:40\n   **   ~~~   ** The solution for one or more of the Air Loop HVAC systems did not appear to converge\n   ** Warning ** SimHVAC: Maximum iterations (20) exceeded for all HVAC loops, at RUN PERIOD 1, 07/02 07:10 - 07:20\n   **   ~~~   ** The solution for one or more of the Air Loop HVAC systems did not appear to converge\n   ** Warning ** SimHVAC: Maximum iterations (20) exceeded for all HVAC loops, at RUN PERIOD 1, 07/13 05:00 - 05:10\n   **   ~~~   ** The solution for one or more of the Air Loop HVAC systems did not appear to converge\n   ** Warning ** SimHVAC: Maximum iterations (20) exceeded for all HVAC loops, at RUN PERIOD 1, 07/18 10:10 - 10:20\n   **   ~~~   ** The solution for one or more of the Air Loop HVAC systems did not appear to converge\n   ** Warning ** SimHVAC: Maximum iterations (20) exceeded for all HVAC loops, at RUN PERIOD 1, 09/14 10:20 - 10:30\n   **   ~~~   ** The solution for one or more of the Air Loop HVAC systems did not appear to converge\n   ** Warning ** SimHVAC: Maximum iterations (20) exceeded for all HVAC loops, at RUN PERIOD 1, 09/29 18:30 - 18:40\n   **   ~~~   ** The solution for one or more of the Air Loop HVAC systems did not appear to converge\n   ** Warning ** SimHVAC: Maximum iterations (20) exceeded for all HVAC loops, at RUN PERIOD 1, 09/29 18:30 - 18:35\n   **   ~~~   ** The solution for one or more of the Air Loop HVAC systems did not appear to converge\n   ** Warning ** The resource referenced by LifeCycleCost:UsePriceEscalation= \"U.S. AVG  COMMERCIAL-ELECTRICITY\" has no energy cost. \n   **   ~~~   ** ... It is likely that the wrong resource is used. The resource should match the meter used in Utility:Tariff.\n   ** Warning ** The resource referenced by LifeCycleCost:UsePriceEscalation= \"U.S. AVG  COMMERCIAL-DISTILLATE OIL\" has no energy cost. \n   **   ~~~   ** ... It is likely that the wrong resource is used. The resource should match the meter used in Utility:Tariff.\n   ** Warning ** The resource referenced by LifeCycleCost:UsePriceEscalation= \"U.S. AVG  COMMERCIAL-RESIDUAL OIL\" has no energy cost. \n   **   ~~~   ** ... It is likely that the wrong resource is used. The resource should match the meter used in Utility:Tariff.\n   ** Warning ** The resource referenced by LifeCycleCost:UsePriceEscalation= \"U.S. AVG  COMMERCIAL-NATURAL GAS\" has no energy cost. \n   **   ~~~   ** ... It is likely that the wrong resource is used. The resource should match the meter used in Utility:Tariff.\n   ** Warning ** The resource referenced by LifeCycleCost:UsePriceEscalation= \"U.S. AVG  COMMERCIAL-COAL\" has no energy cost. \n   **   ~~~   ** ... It is likely that the wrong resource is used. The resource should match the meter used in Utility:Tariff.\n   ************* Simulation Error Summary *************\n   ************* There are 3 unused schedules in input.\n   ************* There are 45 unused week schedules in input.\n   ************* There are 27 unused day schedules in input.\n   ************* Use Output:Diagnostics,DisplayUnusedSchedules; to see them.\n   *************\n   ************* ===== Recurring Surface Error Summary =====\n   ************* The following surface error messages occurred.\n   *************\n   ************* Base Surface does not surround subsurface errors occuring...\n   ************* Check that the GlobalGeometryRules object is expressing the proper starting corner and direction [CounterClockwise/Clockwise]\n   *************\n   ** Warning ** Base surface does not surround subsurface (CHKSBS), Overlap Status=No-Overlap\n   **   ~~~   **   The base surround errors occurred 1 times.\n   **   ~~~   ** Surface \"SURFACE 44\" misses SubSurface \"UNIT 1 - SURFACE 13 - DOOR\"\n   *************\n   **   ~~~   **   The base surround errors occurred 1 times (total).\n   *************\n   *************\n   ************* ===== Recurring Error Summary =====\n   ************* The following recurring error messages occurred.\n   *************\n   *************  ** Warning ** CalcDoe2DXCoil: Coil:Cooling:DX:SingleSpeed=\"RES AC COOLING COIL\" - Air volume flow rate per watt of rated total cooling capacity is out of range error continues...\n   *************  **   ~~~   **   This error occurred 248390 total times;\n   *************  **   ~~~   **   during Warmup 0 times;\n   *************  **   ~~~   **   during Sizing 0 times.\n   *************  **   ~~~   **   Max=7.062180E-005  Min=6.743243E-005\n   *************\n   *************\n   ************* ===== Final Error Summary =====\n   ************* The following error categories occurred.  Consider correcting or noting.\n   ************* Nominally Unused Constructions\n   ************* ..The nominally unused constructions warning is provided to alert you to potential conditions that can cause\n   ************* ..extra time during simulation. Each construction is calculated by the algorithm indicated in the HeatBalanceAlgorithm\n   ************* ..object. You may remove the constructions indicated (when you use the DisplayExtraWarnings option).\n   *************\n   ************* EnergyPlus Warmup Error Summary. During Warmup: 0 Warning; 0 Severe Errors.\n   ************* EnergyPlus Sizing Error Summary. During Sizing: 0 Warning; 0 Severe Errors.\n   ************* EnergyPlus Completed Successfully-- 248420 Warning; 1 Severe Errors; Elapsed Time=00hr 00min 46.60sec\n",
  "file_format_version": "0.0.1",
  "file_paths": [
    "/mnt/openstudio/analysis_8cf45e5e-588f-48ce-a639-1cef97a63274/data_point_c5d625ac-cacd-45d1-afb9-d8d3db3d4e76/generated_files",
    "../weather",
    "../seeds",
    "../seed",
    "./files",
    "./weather",
    "../../files",
    "../../weather",
    "./"
  ],
  "hash": "A1D2F758",
  "measure_paths": [
    "../measures"
  ],
  "name": "diag Autogenerated 120",
  "osa_id": "8cf45e5e-588f-48ce-a639-1cef97a63274",
  "osd_id": "c5d625ac-cacd-45d1-afb9-d8d3db3d4e76",
  "run_directory": "./run",
  "seed_file": "EmptySeedModel.osm",
  "started_at": "20230213T214556Z",
  "steps": [
    {
      "arguments": {
        "begin_day_of_month": 1,
        "begin_month": 1,
        "calendar_year": 2018,
        "end_day_of_month": 31,
        "end_month": 12,
        "timesteps_per_hr": 6
      },
      "description": "Set the simulation timesteps per hour, the run period begin month/day and end month/day, and the calendar year (for start day of week).",
      "measure_dir_name": "ResidentialSimulationControls",
      "name": "residential_simulation_controls",
      "result": {
        "completed_at": "20230213T214556Z",
        "measure_class_name": "ResidentialSimulationControls",
        "measure_display_name": "Set Residential Simulation Controls",
        "measure_name": "residential_simulation_controls",
        "measure_taxonomy": "Whole Building.Space Types",
        "measure_type": "ModelMeasure",
        "measure_uid": "874f921e-8f3c-458a-a82f-01b7d51a547e",
        "measure_version_id": "50490d3c-8385-4b7e-a525-df4147819d03",
        "measure_version_modified": "20200121T164352Z",
        "measure_xml_checksum": "2C38F48B",
        "started_at": "20230213T214556Z",
        "stderr": "",
        "stdout": "",
        "step_errors": [],
        "step_files": [],
        "step_info": [
          "Set the simulation timesteps per hour to 6.",
          "Set the run period begin and end month/day to 1/1 and 12/31, respectively.",
          "Set the calendar year to 2018 and the start day of week to Monday; if you are running with AMY, this will be overridden by the AMY year."
        ],
        "step_result": "Success",
        "step_values": [
          {
            "name": "timesteps_per_hr",
            "value": 6
          },
          {
            "name": "begin_month",
            "value": 1
          },
          {
            "name": "begin_day_of_month",
            "value": 1
          },
          {
            "name": "end_month",
            "value": 12
          },
          {
            "name": "end_day_of_month",
            "value": 31
          },
          {
            "name": "calendar_year",
            "value": 2018
          }
        ],
        "step_warnings": []
      }
    },
    {
      "arguments": {
        "building_id": 120,
        "number_of_buildings_represented": 1600,
        "sample_weight": 0,
        "workflow_json": "measure-info.json"
      },
      "description": "Builds the OpenStudio Model for an existing building.",
      "measure_dir_name": "BuildExistingModel",
      "name": "build_existing_model",
      "result": {
        "completed_at": "20230213T214619Z",
        "measure_class_name": "BuildExistingModel",
        "measure_display_name": "Build Existing Model",
        "measure_name": "build_existing_model",
        "measure_taxonomy": "Whole Building.Space Types",
        "measure_type": "ModelMeasure",
        "measure_uid": "dedf59bb-3b88-4f16-8755-2c1ff5519cbf",
        "measure_version_id": "ddb1178a-cb38-492a-84d7-534fd5d25142",
        "measure_version_modified": "20200118T171809Z",
        "measure_xml_checksum": "2C38F48B",
        "started_at": "20230213T214556Z",
        "stderr": "",
        "stdout": "[OpenStudio.Measure] <0> OSArgumentVector is deprecated, use OpenStudio::Measure::OSArgumentVector instead.\n[openstudio.measure.OSRunner] <1> Cannot find current Workflow Step\n[openstudio.EpwFile] <0> Successive data points (1976-Jan-31 to 1977-Feb-01, ending on line 753) are greater than 1 day apart in EPW file '/mnt/openstudio/analysis_8cf45e5e-588f-48ce-a639-1cef97a63274/weather/USA_MA_Boston-Logan.Intl.AP.725090_TMY3.epw'. Data will be treated as typical (TMY)\n[openstudio.EpwFile] <0> Successive data points (1976-Jan-31 to 1977-Feb-01, ending on line 753) are greater than 1 day apart in EPW file '/mnt/openstudio/analysis_8cf45e5e-588f-48ce-a639-1cef97a63274/weather/USA_MA_Boston-Logan.Intl.AP.725090_TMY3.epw'. Data will be treated as typical (TMY)\n[openstudio.WorkflowStepResult] <-2> WorkflowStepResult::initialCondition is deprecated, use stepInitialCondition instead\n[openstudio.WorkflowStepResult] <-2> WorkflowStepResult::finalCondition is deprecated, use stepFinalCondition instead\n[openstudio.WorkflowStepResult] <-2> WorkflowStepResult::finalCondition is deprecated, use stepFinalCondition instead\n[openstudio.WorkflowStepResult] <-2> WorkflowStepResult::warnings is deprecated, use stepWarnings instead\n[openstudio.WorkflowStepResult] <-2> WorkflowStepResult::info is deprecated, use stepInfo instead\n[openstudio.WorkflowStepResult] <-2> WorkflowStepResult::errors is deprecated, use stepErrors instead\n[openstudio.WorkflowStepResult] <-2> WorkflowStepResult::errors is deprecated, use stepErrors instead\n[openstudio.WorkflowStepResult] <-2> WorkflowStepResult::value is deprecated, use stepResult instead\n[openstudio.WorkflowStepResult] <0> WorkflowStepResult value called with undefined stepResult, returning 'Success'\n[openstudio.measure.OSRunner] <1> Cannot find current Workflow Step\n[openstudio.model.PlanarSurface] <-2> Before setVertices have 11 fields.\n[openstudio.model.PlanarSurface] <-2> After clearExtensibleGroups in setVertices have 11 fields.\n[openstudio.model.PlanarSurface] <-2> After setVertices have 23 fields.  Size of vertices is 4.\n[openstudio.model.PlanarSurface] <-2> Before setVertices have 11 fields.\n[openstudio.model.PlanarSurface] <-2> After clearExtensibleGroups in setVertices have 11 fields.\n[openstudio.model.PlanarSurface] <-2> After setVertices have 23 fields.  Size of vertices is 4.\n[openstudio.model.PlanarSurface] <-2> Before setVertices have 11 fields.\n[openstudio.model.PlanarSurface] <-2> After clearExtensibleGroups in setVertices have 11 fields.\n[openstudio.model.PlanarSurface] <-2> After setVertices have 23 fields.  Size of vertices is 4.\n[openstudio.model.PlanarSurface] <-2> Before setVertices have 11 fields.\n[openstudio.model.PlanarSurface] <-2> After clearExtensibleGroups in setVertices have 11 fields.\n[openstudio.model.PlanarSurface] <-2> After setVertices have 23 fields.  Size of vertices is 4.\n[openstudio.model.PlanarSurface] <-2> Before setVertices have 11 fields.\n[openstudio.model.PlanarSurface] <-2> After clearExtensibleGroups in setVertices have 11 fields.\n[openstudio.model.PlanarSurface] <-2> After setVertices have 23 fields.  Size of vertices is 4.\n[openstudio.model.PlanarSurface] <-2> Before setVertices have 11 fields.\n[openstudio.model.PlanarSurface] <-2> After clearExtensibleGroups in setVertices have 11 fields.\n[openstudio.model.PlanarSurface] <-2> After setVertices have 23 fields.  Size of vertices is 4.\n[openstudio.model.PlanarSurface] <-2> Before setVertices have 23 fields.\n[openstudio.model.PlanarSurface] <-2> After clearExtensibleGroups in setVertices have 11 fields.\n[openstudio.model.PlanarSurface] <-2> After setVertices have 23 fields.  Size of vertices is 4.\n[openstudio.model.PlanarSurface] <-2> Before setVertices have 23 fields.\n[openstudio.model.PlanarSurface] <-2> After clearExtensibleGroups in setVertices have 11 fields.\n[openstudio.model.PlanarSurface] <-2> After setVertices have 23 fields.  Size of vertices is 4.\n[openstudio.model.PlanarSurface] <-2> Before setVertices have 23 fields.\n[openstudio.model.PlanarSurface] <-2> After clearExtensibleGroups in setVertices have 11 fields.\n[openstudio.model.PlanarSurface] <-2> After setVertices have 23 fields.  Size of vertices is 4.\n[openstudio.model.PlanarSurface] <-2> Before setVertices have 23 fields.\n[openstudio.model.PlanarSurface] <-2> After clearExtensibleGroups in setVertices have 11 fields.\n[openstudio.model.PlanarSurface] <-2> After setVertices have 23 fields.  Size of vertices is 4.\n[openstudio.model.PlanarSurface] <-2> Before setVertices have 23 fields.\n[openstudio.model.PlanarSurface] <-2> After clearExtensibleGroups in setVertices have 11 fields.\n[openstudio.model.PlanarSurface] <-2> After setVertices have 23 fields.  Size of vertices is 4.\n[openstudio.model.PlanarSurface] <-2> Before setVertices have 23 fields.\n[openstudio.model.PlanarSurface] <-2> After clearExtensibleGroups in setVertices have 11 fields.\n[openstudio.model.PlanarSurface] <-2> After setVertices have 23 fields.  Size of vertices is 4.\n[openstudio.model.PlanarSurface] <-2> Before setVertices have 11 fields.\n[openstudio.model.PlanarSurface] <-2> After clearExtensibleGroups in setVertices have 11 fields.\n[openstudio.model.PlanarSurface] <-2> After setVertices have 29 fields.  Size of vertices is 6.\n[openstudio.model.PlanarSurface] <-2> Before setVertices have 11 fields.\n[openstudio.model.PlanarSurface] <-2> After clearExtensibleGroups in setVertices have 11 fields.\n[openstudio.model.PlanarSurface] <-2> After setVertices have 23 fields.  Size of vertices is 4.\n[openstudio.model.PlanarSurface] <-2> Before setVertices have 11 fields.\n[openstudio.model.PlanarSurface] <-2> After clearExtensibleGroups in setVertices have 11 fields.\n[openstudio.model.PlanarSurface] <-2> After setVertices have 23 fields.  Size of vertices is 4.\n[openstudio.model.PlanarSurface] <-2> Before setVertices have 11 fields.\n[openstudio.model.PlanarSurface] <-2> After clearExtensibleGroups in setVertices have 11 fields.\n[openstudio.model.PlanarSurface] <-2> After setVertices have 23 fields.  Size of vertices is 4.\n[openstudio.model.PlanarSurface] <-2> Before setVertices have 11 fields.\n[openstudio.model.PlanarSurface] <-2> After clearExtensibleGroups in setVertices have 11 fields.\n[openstudio.model.PlanarSurface] <-2> After setVertices have 23 fields.  Size of vertices is 4.\n[openstudio.model.PlanarSurface] <-2> Before setVertices have 11 fields.\n[openstudio.model.PlanarSurface] <-2> After clearExtensibleGroups in setVertices have 11 fields.\n[openstudio.model.PlanarSurface] <-2> After setVertices have 23 fields.  Size of vertices is 4.\n[openstudio.model.PlanarSurface] <-2> Before setVertices have 11 fields.\n[openstudio.model.PlanarSurface] <-2> After clearExtensibleGroups in setVertices have 11 fields.\n[openstudio.model.PlanarSurface] <-2> After setVertices have 23 fields.  Size of vertices is 4.\n[openstudio.model.PlanarSurface] <-2> Before setVertices have 11 fields.\n[openstudio.model.PlanarSurface] <-2> After clearExtensibleGroups in setVertices have 11 fields.\n[openstudio.model.PlanarSurface] <-2> After setVertices have 29 fields.  Size of vertices is 6.\n[openstudio.model.PlanarSurface] <-2> Before setVertices have 23 fields.\n[openstudio.model.PlanarSurface] <-2> After clearExtensibleGroups in setVertices have 11 fields.\n[openstudio.model.PlanarSurface] <-2> After setVertices have 23 fields.  Size of vertices is 4.\n[openstudio.model.PlanarSurface] <-2> Before setVertices have 23 fields.\n[openstudio.model.PlanarSurface] <-2> After clearExtensibleGroups in setVertices have 11 fields.\n[openstudio.model.PlanarSurface] <-2> After setVertices have 23 fields.  Size of vertices is 4.\n[openstudio.model.PlanarSurface] <-2> Before setVertices have 29 fields.\n[openstudio.model.PlanarSurface] <-2> After clearExtensibleGroups in setVertices have 11 fields.\n[openstudio.model.PlanarSurface] <-2> After setVertices have 29 fields.  Size of vertices is 6.\n[openstudio.model.PlanarSurface] <-2> Before setVertices have 23 fields.\n[openstudio.model.PlanarSurface] <-2> After clearExtensibleGroups in setVertices have 11 fields.\n[openstudio.model.PlanarSurface] <-2> After setVertices have 23 fields.  Size of vertices is 4.\n[openstudio.model.PlanarSurface] <-2> Before setVertices have 23 fields.\n[openstudio.model.PlanarSurface] <-2> After clearExtensibleGroups in setVertices have 11 fields.\n[openstudio.model.PlanarSurface] <-2> After setVertices have 23 fields.  Size of vertices is 4.\n[openstudio.model.PlanarSurface] <-2> Before setVertices have 29 fields.\n[openstudio.model.PlanarSurface] <-2> After clearExtensibleGroups in setVertices have 11 fields.\n[openstudio.model.PlanarSurface] <-2> After setVertices have 29 fields.  Size of vertices is 6.\n[openstudio.model.PlanarSurface] <-2> Before setVertices have 23 fields.\n[openstudio.model.PlanarSurface] <-2> After clearExtensibleGroups in setVertices have 11 fields.\n[openstudio.model.PlanarSurface] <-2> After setVertices have 23 fields.  Size of vertices is 4.\n[openstudio.model.PlanarSurface] <-2> Before setVertices have 23 fields.\n[openstudio.model.PlanarSurface] <-2> After clearExtensibleGroups in setVertices have 11 fields.\n[openstudio.model.PlanarSurface] <-2> After setVertices have 23 fields.  Size of vertices is 4.\n[openstudio.model.PlanarSurface] <-2> Before setVertices have 11 fields.\n[openstudio.model.PlanarSurface] <-2> After clearExtensibleGroups in setVertices have 11 fields.\n[openstudio.model.PlanarSurface] <-2> After setVertices have 29 fields.  Size of vertices is 6.\n[openstudio.model.PlanarSurface] <-2> Before setVertices have 11 fields.\n[openstudio.model.PlanarSurface] <-2> After clearExtensibleGroups in setVertices have 11 fields.\n[openstudio.model.PlanarSurface] <-2> After setVertices have 23 fields.  Size of vertices is 4.\n[openstudio.model.PlanarSurface] <-2> Before setVertices have 11 fields.\n[openstudio.model.PlanarSurface] <-2> After clearExtensibleGroups in setVertices have 11 fields.\n[openstudio.model.PlanarSurface] <-2> After setVertices have 23 fields.  Size of vertices is 4.\n[openstudio.model.PlanarSurface] <-2> Before setVertices have 11 fields.\n[openstudio.model.PlanarSurface] <-2> After clearExtensibleGroups in setVertices have 11 fields.\n[openstudio.model.PlanarSurface] <-2> After setVertices have 23 fields.  Size of vertices is 4.\n[openstudio.model.PlanarSurface] <-2> Before setVertices have 11 fields.\n[openstudio.model.PlanarSurface] <-2> After clearExtensibleGroups in setVertices have 11 fields.\n[openstudio.model.PlanarSurface] <-2> After setVertices have 23 fields.  Size of vertices is 4.\n[openstudio.model.PlanarSurface] <-2> Before setVertices have 11 fields.\n[openstudio.model.PlanarSurface] <-2> After clearExtensibleGroups in setVertices have 11 fields.\n[openstudio.model.PlanarSurface] <-2> After setVertices have 23 fields.  Size of vertices is 4.\n[openstudio.model.PlanarSurface] <-2> Before setVertices have 11 fields.\n[openstudio.model.PlanarSurface] <-2> After clearExtensibleGroups in setVertices have 11 fields.\n[openstudio.model.PlanarSurface] <-2> After setVertices have 23 fields.  Size of vertices is 4.\n[openstudio.model.PlanarSurface] <-2> Before setVertices have 11 fields.\n[openstudio.model.PlanarSurface] <-2> After clearExtensibleGroups in setVertices have 11 fields.\n[openstudio.model.PlanarSurface] <-2> After setVertices have 29 fields.  Size of vertices is 6.\n[openstudio.model.PlanarSurface] <-2> Before setVertices have 23 fields.\n[openstudio.model.PlanarSurface] <-2> After clearExtensibleGroups in setVertices have 11 fields.\n[openstudio.model.PlanarSurface] <-2> After setVertices have 23 fields.  Size of vertices is 4.\n[openstudio.model.PlanarSurface] <-2> Before setVertices have 23 fields.\n[openstudio.model.PlanarSurface] <-2> After clearExtensibleGroups in setVertices have 11 fields.\n[openstudio.model.PlanarSurface] <-2> After setVertices have 23 fields.  Size of vertices is 4.\n[openstudio.model.PlanarSurface] <-2> Before setVertices have 23 fields.\n[openstudio.model.PlanarSurface] <-2> After clearExtensibleGroups in setVertices have 11 fields.\n[openstudio.model.PlanarSurface] <-2> After setVertices have 23 fields.  Size of vertices is 4.\n[openstudio.model.PlanarSurface] <-2> Before setVertices have 23 fields.\n[openstudio.model.PlanarSurface] <-2> After clearExtensibleGroups in setVertices have 11 fields.\n[openstudio.model.PlanarSurface] <-2> After setVertices have 23 fields.  Size of vertices is 4.\n[openstudio.model.PlanarSurface] <-2> Before setVertices have 23 fields.\n[openstudio.model.PlanarSurface] <-2> After clearExtensibleGroups in setVertices have 11 fields.\n[openstudio.model.PlanarSurface] <-2> After setVertices have 23 fields.  Size of vertices is 4.\n[openstudio.model.PlanarSurface] <-2> Before setVertices have 29 fields.\n[openstudio.model.PlanarSurface] <-2> After clearExtensibleGroups in setVertices have 11 fields.\n[openstudio.model.PlanarSurface] <-2> After setVertices have 29 fields.  Size of vertices is 6.\n[openstudio.model.PlanarSurface] <-2> Before setVertices have 23 fields.\n[openstudio.model.PlanarSurface] <-2> After clearExtensibleGroups in setVertices have 11 fields.\n[openstudio.model.PlanarSurface] <-2> After setVertices have 23 fields.  Size of vertices is 4.\n[openstudio.model.PlanarSurface] <-2> Before setVertices have 29 fields.\n[openstudio.model.PlanarSurface] <-2> After clearExtensibleGroups in setVertices have 11 fields.\n[openstudio.model.PlanarSurface] <-2> After setVertices have 29 fields.  Size of vertices is 6.\n[openstudio.model.PlanarSurface] <-2> Before setVertices have 11 fields.\n[openstudio.model.PlanarSurface] <-2> After clearExtensibleGroups in setVertices have 11 fields.\n[openstudio.model.PlanarSurface] <-2> After setVertices have 23 fields.  Size of vertices is 4.\n[openstudio.model.PlanarSurface] <-2> Before setVertices have 11 fields.\n[openstudio.model.PlanarSurface] <-2> After clearExtensibleGroups in setVertices have 11 fields.\n[openstudio.model.PlanarSurface] <-2> After setVertices have 23 fields.  Size of vertices is 4.\n[openstudio.model.PlanarSurface] <-2> Before setVertices have 11 fields.\n[openstudio.model.PlanarSurface] <-2> After clearExtensibleGroups in setVertices have 11 fields.\n[openstudio.model.PlanarSurface] <-2> After setVertices have 23 fields.  Size of vertices is 4.\n[openstudio.model.PlanarSurface] <-2> Before setVertices have 11 fields.\n[openstudio.model.PlanarSurface] <-2> After clearExtensibleGroups in setVertices have 11 fields.\n[openstudio.model.PlanarSurface] <-2> After setVertices have 20 fields.  Size of vertices is 3.\n[openstudio.model.PlanarSurface] <-2> Before setVertices have 11 fields.\n[openstudio.model.PlanarSurface] <-2> After clearExtensibleGroups in setVertices have 11 fields.\n[openstudio.model.PlanarSurface] <-2> After setVertices have 20 fields.  Size of vertices is 3.\n[openstudio.model.PlanarSurface] <-2> Before setVertices have 20 fields.\n[openstudio.model.PlanarSurface] <-2> After clearExtensibleGroups in setVertices have 11 fields.\n[openstudio.model.PlanarSurface] <-2> After setVertices have 20 fields.  Size of vertices is 3.\n[openstudio.model.PlanarSurface] <-2> Before setVertices have 23 fields.\n[openstudio.model.PlanarSurface] <-2> After clearExtensibleGroups in setVertices have 11 fields.\n[openstudio.model.PlanarSurface] <-2> After setVertices have 23 fields.  Size of vertices is 4.\n[openstudio.model.PlanarSurface] <-2> Before setVertices have 23 fields.\n[openstudio.model.PlanarSurface] <-2> After clearExtensibleGroups in setVertices have 11 fields.\n[openstudio.model.PlanarSurface] <-2> After setVertices have 23 fields.  Size of vertices is 4.\n[openstudio.model.PlanarSurface] <-2> Before setVertices have 23 fields.\n[openstudio.model.PlanarSurface] <-2> After clearExtensibleGroups in setVertices have 11 fields.\n[openstudio.model.PlanarSurface] <-2> After setVertices have 23 fields.  Size of vertices is 4.\n[openstudio.model.PlanarSurface] <-2> Before setVertices have 20 fields.\n[openstudio.model.PlanarSurface] <-2> After clearExtensibleGroups in setVertices have 11 fields.\n[openstudio.model.PlanarSurface] <-2> After setVertices have 20 fields.  Size of vertices is 3.\n[openstudio.model.PlanarSurface] <-2> Before setVertices have 11 fields.\n[openstudio.model.PlanarSurface] <-2> After clearExtensibleGroups in setVertices have 11 fields.\n[openstudio.model.PlanarSurface] <-2> After setVertices have 29 fields.  Size of vertices is 6.\n[openstudio.model.PlanarSurface] <-2> Before setVertices have 11 fields.\n[openstudio.model.PlanarSurface] <-2> After clearExtensibleGroups in setVertices have 11 fields.\n[openstudio.model.PlanarSurface] <-2> After setVertices have 23 fields.  Size of vertices is 4.\n[openstudio.model.PlanarSurface] <-2> Before setVertices have 11 fields.\n[openstudio.model.PlanarSurface] <-2> After clearExtensibleGroups in setVertices have 11 fields.\n[openstudio.model.PlanarSurface] <-2> After setVertices have 23 fields.  Size of vertices is 4.\n[openstudio.model.PlanarSurface] <-2> Before setVertices have 11 fields.\n[openstudio.model.PlanarSurface] <-2> After clearExtensibleGroups in setVertices have 11 fields.\n[openstudio.model.PlanarSurface] <-2> After setVertices have 23 fields.  Size of vertices is 4.\n[openstudio.model.PlanarSurface] <-2> Before setVertices have 11 fields.\n[openstudio.model.PlanarSurface] <-2> After clearExtensibleGroups in setVertices have 11 fields.\n[openstudio.model.PlanarSurface] <-2> After setVertices have 23 fields.  Size of vertices is 4.\n[openstudio.model.PlanarSurface] <-2> Before setVertices have 11 fields.\n[openstudio.model.PlanarSurface] <-2> After clearExtensibleGroups in setVertices have 11 fields.\n[openstudio.model.PlanarSurface] <-2> After setVertices have 23 fields.  Size of vertices is 4.\n[openstudio.model.PlanarSurface] <-2> Before setVertices have 11 fields.\n[openstudio.model.PlanarSurface] <-2> After clearExtensibleGroups in setVertices have 11 fields.\n[openstudio.model.PlanarSurface] <-2> After setVertices have 23 fields.  Size of vertices is 4.\n[openstudio.model.PlanarSurface] <-2> Before setVertices have 11 fields.\n[openstudio.model.PlanarSurface] <-2> After clearExtensibleGroups in setVertices have 11 fields.\n[openstudio.model.PlanarSurface] <-2> After setVertices have 29 fields.  Size of vertices is 6.\n[openstudio.model.PlanarSurface] <-2> Before setVertices have 23 fields.\n[openstudio.model.PlanarSurface] <-2> After clearExtensibleGroups in setVertices have 11 fields.\n[openstudio.model.PlanarSurface] <-2> After setVertices have 23 fields.  Size of vertices is 4.\n[openstudio.model.PlanarSurface] <-2> Before setVertices have 23 fields.\n[openstudio.model.PlanarSurface] <-2> After clearExtensibleGroups in setVertices have 11 fields.\n[openstudio.model.PlanarSurface] <-2> After setVertices have 23 fields.  Size of vertices is 4.\n[openstudio.model.PlanarSurface] <-2> Before setVertices have 29 fields.\n[openstudio.model.PlanarSurface] <-2> After clearExtensibleGroups in setVertices have 11 fields.\n[openstudio.model.PlanarSurface] <-2> After setVertices have 29 fields.  Size of vertices is 6.\n[openstudio.model.PlanarSurface] <-2> Before setVertices have 23 fields.\n[openstudio.model.PlanarSurface] <-2> After clearExtensibleGroups in setVertices have 11 fields.\n[openstudio.model.PlanarSurface] <-2> After setVertices have 23 fields.  Size of vertices is 4.\n[openstudio.model.PlanarSurface] <-2> Before setVertices have 23 fields.\n[openstudio.model.PlanarSurface] <-2> After clearExtensibleGroups in setVertices have 11 fields.\n[openstudio.model.PlanarSurface] <-2> After setVertices have 23 fields.  Size of vertices is 4.\n[openstudio.model.PlanarSurface] <-2> Before setVertices have 23 fields.\n[openstudio.model.PlanarSurface] <-2> After clearExtensibleGroups in setVertices have 11 fields.\n[openstudio.model.PlanarSurface] <-2> After setVertices have 23 fields.  Size of vertices is 4.\n[openstudio.model.PlanarSurface] <-2> Before setVertices have 29 fields.\n[openstudio.model.PlanarSurface] <-2> After clearExtensibleGroups in setVertices have 11 fields.\n[openstudio.model.PlanarSurface] <-2> After setVertices have 29 fields.  Size of vertices is 6.\n[openstudio.model.PlanarSurface] <-2> Before setVertices have 23 fields.\n[openstudio.model.PlanarSurface] <-2> After clearExtensibleGroups in setVertices have 11 fields.\n[openstudio.model.PlanarSurface] <-2> After setVertices have 23 fields.  Size of vertices is 4.\n[openstudio.model.Surface] <-1> Intersection of 'Surface 7' with 'Surface 35' results in (Surface 7), (Surface 35), [], []\n[openstudio.model.Surface] <-1> Intersection of 'Surface 11' with 'Surface 3' results in (Surface 11), (Surface 3), [], []\n[openstudio.model.PlanarSurface] <-2> Before setVertices have 23 fields.\n[openstudio.model.PlanarSurface] <-2> After clearExtensibleGroups in setVertices have 11 fields.\n[openstudio.model.PlanarSurface] <-2> After setVertices have 23 fields.  Size of vertices is 4.\n[openstudio.model.PlanarSurface] <-2> Before setVertices have 23 fields.\n[openstudio.model.PlanarSurface] <-2> After clearExtensibleGroups in setVertices have 11 fields.\n[openstudio.model.PlanarSurface] <-2> After setVertices have 23 fields.  Size of vertices is 4.\n[openstudio.model.PlanarSurface] <-2> Before setVertices have 11 fields.\n[openstudio.model.PlanarSurface] <-2> After clearExtensibleGroups in setVertices have 11 fields.\n[openstudio.model.PlanarSurface] <-2> After setVertices have 23 fields.  Size of vertices is 4.\n[openstudio.model.Surface] <-1> Intersection of 'Surface 12' with 'Surface 2' results in (Surface 12), (Surface 2), [], [Surface 36]\n[openstudio.model.PlanarSurface] <-2> Before setVertices have 29 fields.\n[openstudio.model.PlanarSurface] <-2> After clearExtensibleGroups in setVertices have 11 fields.\n[openstudio.model.PlanarSurface] <-2> After setVertices have 29 fields.  Size of vertices is 6.\n[openstudio.model.PlanarSurface] <-2> Before setVertices have 29 fields.\n[openstudio.model.PlanarSurface] <-2> After clearExtensibleGroups in setVertices have 11 fields.\n[openstudio.model.PlanarSurface] <-2> After setVertices have 29 fields.  Size of vertices is 6.\n[openstudio.model.PlanarSurface] <-2> Before setVertices have 11 fields.\n[openstudio.model.PlanarSurface] <-2> After clearExtensibleGroups in setVertices have 11 fields.\n[openstudio.model.PlanarSurface] <-2> After setVertices have 23 fields.  Size of vertices is 4.\n[openstudio.model.Surface] <-1> Intersection of 'Surface 14' with 'Surface 15' results in (Surface 14), (Surface 15), [], [Surface 37]\n[openstudio.model.Surface] <-1> Intersection of 'Surface 6' with 'Surface 37' results in (Surface 6), (Surface 37), [], []\n[openstudio.model.PlanarSurface] <-2> Before setVertices have 23 fields.\n[openstudio.model.PlanarSurface] <-2> After clearExtensibleGroups in setVertices have 11 fields.\n[openstudio.model.PlanarSurface] <-2> After setVertices have 23 fields.  Size of vertices is 4.\n[openstudio.model.PlanarSurface] <-2> Before setVertices have 29 fields.\n[openstudio.model.PlanarSurface] <-2> After clearExtensibleGroups in setVertices have 11 fields.\n[openstudio.model.PlanarSurface] <-2> After setVertices have 23 fields.  Size of vertices is 4.\n[openstudio.model.PlanarSurface] <-2> Before setVertices have 11 fields.\n[openstudio.model.PlanarSurface] <-2> After clearExtensibleGroups in setVertices have 11 fields.\n[openstudio.model.PlanarSurface] <-2> After setVertices have 23 fields.  Size of vertices is 4.\n[openstudio.model.Surface] <-1> Intersection of 'Surface 23' with 'Surface 22' results in (Surface 23), (Surface 22), [], [Surface 38]\n[openstudio.model.PlanarSurface] <-2> Before setVertices have 11 fields.\n[openstudio.model.PlanarSurface] <-2> After clearExtensibleGroups in setVertices have 11 fields.\n[openstudio.model.PlanarSurface] <-2> After setVertices have 23 fields.  Size of vertices is 4.\n[openstudio.model.PlanarSurface] <-2> Before setVertices have 11 fields.\n[openstudio.model.PlanarSurface] <-2> After clearExtensibleGroups in setVertices have 11 fields.\n[openstudio.model.PlanarSurface] <-2> After setVertices have 23 fields.  Size of vertices is 4.\n[openstudio.model.PlanarSurface] <-2> Before setVertices have 11 fields.\n[openstudio.model.PlanarSurface] <-2> After clearExtensibleGroups in setVertices have 11 fields.\n[openstudio.model.PlanarSurface] <-2> After setVertices have 20 fields.  Size of vertices is 3.\n[openstudio.model.PlanarSurface] <-2> Before setVertices have 11 fields.\n[openstudio.model.PlanarSurface] <-2> After clearExtensibleGroups in setVertices have 11 fields.\n[openstudio.model.PlanarSurface] <-2> After setVertices have 20 fields.  Size of vertices is 3.\n[openstudio.model.PlanarSurface] <-2> Before setVertices have 11 fields.\n[openstudio.model.PlanarSurface] <-2> After clearExtensibleGroups in setVertices have 11 fields.\n[openstudio.model.PlanarSurface] <-2> After setVertices have 23 fields.  Size of vertices is 4.\n[openstudio.model.PlanarSurface] <-2> Before setVertices have 20 fields.\n[openstudio.model.PlanarSurface] <-2> After clearExtensibleGroups in setVertices have 11 fields.\n[openstudio.model.PlanarSurface] <-2> After setVertices have 20 fields.  Size of vertices is 3.\n[openstudio.model.PlanarSurface] <-2> Before setVertices have 23 fields.\n[openstudio.model.PlanarSurface] <-2> After clearExtensibleGroups in setVertices have 11 fields.\n[openstudio.model.PlanarSurface] <-2> After setVertices have 20 fields.  Size of vertices is 3.\n[openstudio.model.PlanarSurface] <-2> Before setVertices have 11 fields.\n[openstudio.model.PlanarSurface] <-2> After clearExtensibleGroups in setVertices have 11 fields.\n[openstudio.model.PlanarSurface] <-2> After setVertices have 29 fields.  Size of vertices is 6.\n[openstudio.model.Surface] <-1> Intersection of 'Surface 41' with 'Surface 24' results in (Surface 41), (Surface 24), [], [Surface 43]\n[openstudio.model.PlanarSurface] <-2> Before setVertices have 20 fields.\n[openstudio.model.PlanarSurface] <-2> After clearExtensibleGroups in setVertices have 11 fields.\n[openstudio.model.PlanarSurface] <-2> After setVertices have 20 fields.  Size of vertices is 3.\n[openstudio.model.PlanarSurface] <-2> Before setVertices have 23 fields.\n[openstudio.model.PlanarSurface] <-2> After clearExtensibleGroups in setVertices have 11 fields.\n[openstudio.model.PlanarSurface] <-2> After setVertices have 23 fields.  Size of vertices is 4.\n[openstudio.model.PlanarSurface] <-2> Before setVertices have 23 fields.\n[openstudio.model.PlanarSurface] <-2> After clearExtensibleGroups in setVertices have 11 fields.\n[openstudio.model.PlanarSurface] <-2> After setVertices have 23 fields.  Size of vertices is 4.\n[openstudio.model.PlanarSurface] <-2> Before setVertices have 23 fields.\n[openstudio.model.PlanarSurface] <-2> After clearExtensibleGroups in setVertices have 11 fields.\n[openstudio.model.PlanarSurface] <-2> After setVertices have 23 fields.  Size of vertices is 4.\n[utilities.idf.Workspace] <-1> Renamed Object of type 'OS:Schedule:Day' and named 'Schedule Day 1' to 'Schedule Day 4' to avoid a name conflict upon WorkspaceObject addition.\n[utilities.idf.Workspace] <-1> Renamed Object of type 'OS:Schedule:Day' and named 'Schedule Day 2' to 'Schedule Day 4' to avoid a name conflict upon WorkspaceObject addition.\n[openstudio.model.PlanarSurface] <-2> Before setVertices have 23 fields.\n[openstudio.model.PlanarSurface] <-2> After clearExtensibleGroups in setVertices have 11 fields.\n[openstudio.model.PlanarSurface] <-2> After setVertices have 23 fields.  Size of vertices is 4.\n[openstudio.model.PlanarSurface] <-2> Before setVertices have 6 fields.\n[openstudio.model.PlanarSurface] <-2> After clearExtensibleGroups in setVertices have 6 fields.\n[openstudio.model.PlanarSurface] <-2> After setVertices have 18 fields.  Size of vertices is 4.\n[openstudio.model.PlanarSurface] <-2> Before setVertices have 6 fields.\n[openstudio.model.PlanarSurface] <-2> After clearExtensibleGroups in setVertices have 6 fields.\n[openstudio.model.PlanarSurface] <-2> After setVertices have 18 fields.  Size of vertices is 4.\n[openstudio.model.PlanarSurface] <-2> Before setVertices have 29 fields.\n[openstudio.model.PlanarSurface] <-2> After clearExtensibleGroups in setVertices have 11 fields.\n[openstudio.model.PlanarSurface] <-2> After setVertices have 29 fields.  Size of vertices is 6.\n[openstudio.model.PlanarSurface] <-2> Before setVertices have 6 fields.\n[openstudio.model.PlanarSurface] <-2> After clearExtensibleGroups in setVertices have 6 fields.\n[openstudio.model.PlanarSurface] <-2> After setVertices have 18 fields.  Size of vertices is 4.\n[openstudio.model.PlanarSurface] <-2> Before setVertices have 6 fields.\n[openstudio.model.PlanarSurface] <-2> After clearExtensibleGroups in setVertices have 6 fields.\n[openstudio.model.PlanarSurface] <-2> After setVertices have 18 fields.  Size of vertices is 4.\n[openstudio.model.PlanarSurface] <-2> Before setVertices have 6 fields.\n[openstudio.model.PlanarSurface] <-2> After clearExtensibleGroups in setVertices have 6 fields.\n[openstudio.model.PlanarSurface] <-2> After setVertices have 18 fields.  Size of vertices is 4.\n[openstudio.model.PlanarSurface] <-2> Before setVertices have 23 fields.\n[openstudio.model.PlanarSurface] <-2> After clearExtensibleGroups in setVertices have 11 fields.\n[openstudio.model.PlanarSurface] <-2> After setVertices have 23 fields.  Size of vertices is 4.\n[openstudio.model.PlanarSurface] <-2> Before setVertices have 6 fields.\n[openstudio.model.PlanarSurface] <-2> After clearExtensibleGroups in setVertices have 6 fields.\n[openstudio.model.PlanarSurface] <-2> After setVertices have 18 fields.  Size of vertices is 4.\n[openstudio.model.PlanarSurface] <-2> Before setVertices have 6 fields.\n[openstudio.model.PlanarSurface] <-2> After clearExtensibleGroups in setVertices have 6 fields.\n[openstudio.model.PlanarSurface] <-2> After setVertices have 18 fields.  Size of vertices is 4.\n[openstudio.model.PlanarSurface] <-2> Before setVertices have 6 fields.\n[openstudio.model.PlanarSurface] <-2> After clearExtensibleGroups in setVertices have 6 fields.\n[openstudio.model.PlanarSurface] <-2> After setVertices have 18 fields.  Size of vertices is 4.\n[openstudio.model.PlanarSurface] <-2> Before setVertices have 23 fields.\n[openstudio.model.PlanarSurface] <-2> After clearExtensibleGroups in setVertices have 11 fields.\n[openstudio.model.PlanarSurface] <-2> After setVertices have 23 fields.  Size of vertices is 4.\n[openstudio.model.PlanarSurface] <-2> Before setVertices have 6 fields.\n[openstudio.model.PlanarSurface] <-2> After clearExtensibleGroups in setVertices have 6 fields.\n[openstudio.model.PlanarSurface] <-2> After setVertices have 18 fields.  Size of vertices is 4.\n[openstudio.model.PlanarSurface] <-2> Before setVertices have 6 fields.\n[openstudio.model.PlanarSurface] <-2> After clearExtensibleGroups in setVertices have 6 fields.\n[openstudio.model.PlanarSurface] <-2> After setVertices have 18 fields.  Size of vertices is 4.\n[openstudio.model.PlanarSurface] <-2> Before setVertices have 6 fields.\n[openstudio.model.PlanarSurface] <-2> After clearExtensibleGroups in setVertices have 6 fields.\n[openstudio.model.PlanarSurface] <-2> After setVertices have 18 fields.  Size of vertices is 4.\n[openstudio.model.PlanarSurface] <-2> Before setVertices have 6 fields.\n[openstudio.model.PlanarSurface] <-2> After clearExtensibleGroups in setVertices have 6 fields.\n[openstudio.model.PlanarSurface] <-2> After setVertices have 18 fields.  Size of vertices is 4.\n[openstudio.WorkflowStepResult] <-2> WorkflowStepResult::initialCondition is deprecated, use stepInitialCondition instead\n[openstudio.WorkflowStepResult] <-2> WorkflowStepResult::initialCondition is deprecated, use stepInitialCondition instead\n[openstudio.WorkflowStepResult] <-2> WorkflowStepResult::finalCondition is deprecated, use stepFinalCondition instead\n[openstudio.WorkflowStepResult] <-2> WorkflowStepResult::finalCondition is deprecated, use stepFinalCondition instead\n[openstudio.WorkflowStepResult] <-2> WorkflowStepResult::warnings is deprecated, use stepWarnings instead\n[openstudio.WorkflowStepResult] <-2> WorkflowStepResult::info is deprecated, use stepInfo instead\n[openstudio.WorkflowStepResult] <-2> WorkflowStepResult::errors is deprecated, use stepErrors instead\n[openstudio.WorkflowStepResult] <-2> WorkflowStepResult::errors is deprecated, use stepErrors instead\n[openstudio.WorkflowStepResult] <-2> WorkflowStepResult::value is deprecated, use stepResult instead\n[openstudio.WorkflowStepResult] <0> WorkflowStepResult value called with undefined stepResult, returning 'Success'\n[openstudio.measure.OSRunner] <1> Cannot find current Workflow Step\n[openstudio.model.PlanarSurface] <-2> Before setVertices have 11 fields.\n[openstudio.model.PlanarSurface] <-2> After clearExtensibleGroups in setVertices have 11 fields.\n[openstudio.model.PlanarSurface] <-2> After setVertices have 23 fields.  Size of vertices is 4.\n[openstudio.WorkflowStepResult] <-2> WorkflowStepResult::initialCondition is deprecated, use stepInitialCondition instead\n[openstudio.WorkflowStepResult] <-2> WorkflowStepResult::finalCondition is deprecated, use stepFinalCondition instead\n[openstudio.WorkflowStepResult] <-2> WorkflowStepResult::finalCondition is deprecated, use stepFinalCondition instead\n[openstudio.WorkflowStepResult] <-2> WorkflowStepResult::warnings is deprecated, use stepWarnings instead\n[openstudio.WorkflowStepResult] <-2> WorkflowStepResult::info is deprecated, use stepInfo instead\n[openstudio.WorkflowStepResult] <-2> WorkflowStepResult::errors is deprecated, use stepErrors instead\n[openstudio.WorkflowStepResult] <-2> WorkflowStepResult::errors is deprecated, use stepErrors instead\n[openstudio.WorkflowStepResult] <-2> WorkflowStepResult::value is deprecated, use stepResult instead\n[openstudio.WorkflowStepResult] <0> WorkflowStepResult value called with undefined stepResult, returning 'Success'\n[openstudio.measure.OSRunner] <1> Cannot find current Workflow Step\n[openstudio.model.PlanarSurface] <-2> Before setVertices have 23 fields.\n[openstudio.model.PlanarSurface] <-2> After clearExtensibleGroups in setVertices have 11 fields.\n[openstudio.model.PlanarSurface] <-2> After setVertices have 23 fields.  Size of vertices is 4.\n[utilities.idf.Workspace] <-1> Renamed Object of type 'OS:Surface' and named 'Surface 13' to 'Surface 44' to avoid a name conflict upon WorkspaceObject addition.\n[utilities.idf.Workspace] <-1> Renamed Object of type 'OS:SubSurface' and named 'unit 1 - Surface 13 - Door' to 'unit 1 - Surface 13 - Door 1' to avoid a name conflict upon WorkspaceObject addition.\n[openstudio.model.PlanarSurface] <-2> Before setVertices have 23 fields.\n[openstudio.model.PlanarSurface] <-2> After clearExtensibleGroups in setVertices have 11 fields.\n[openstudio.model.PlanarSurface] <-2> After setVertices have 23 fields.  Size of vertices is 4.\n[utilities.idf.Workspace] <-1> Renamed Object of type 'OS:Surface' and named 'Surface 13' to 'Surface 45' to avoid a name conflict upon WorkspaceObject addition.\n[openstudio.model.PlanarSurface] <-2> Before setVertices have 23 fields.\n[openstudio.model.PlanarSurface] <-2> After clearExtensibleGroups in setVertices have 11 fields.\n[openstudio.model.PlanarSurface] <-2> After setVertices have 23 fields.  Size of vertices is 4.\n[openstudio.model.PlanarSurface] <-2> Before setVertices have 11 fields.\n[openstudio.model.PlanarSurface] <-2> After clearExtensibleGroups in setVertices have 11 fields.\n[openstudio.model.PlanarSurface] <-2> After setVertices have 23 fields.  Size of vertices is 4.\n[openstudio.model.PlanarSurface] <-2> Before setVertices have 11 fields.\n[openstudio.model.PlanarSurface] <-2> After clearExtensibleGroups in setVertices have 11 fields.\n[openstudio.model.PlanarSurface] <-2> After setVertices have 23 fields.  Size of vertices is 4.\n[openstudio.model.PlanarSurface] <-2> Before setVertices have 11 fields.\n[openstudio.model.PlanarSurface] <-2> After clearExtensibleGroups in setVertices have 11 fields.\n[openstudio.model.PlanarSurface] <-2> After setVertices have 23 fields.  Size of vertices is 4.\n[openstudio.model.PlanarSurface] <-2> Before setVertices have 11 fields.\n[openstudio.model.PlanarSurface] <-2> After clearExtensibleGroups in setVertices have 11 fields.\n[openstudio.model.PlanarSurface] <-2> After setVertices have 23 fields.  Size of vertices is 4.\n[openstudio.model.PlanarSurface] <-2> Before setVertices have 11 fields.\n[openstudio.model.PlanarSurface] <-2> After clearExtensibleGroups in setVertices have 11 fields.\n[openstudio.model.PlanarSurface] <-2> After setVertices have 23 fields.  Size of vertices is 4.\n[openstudio.model.PlanarSurface] <-2> Before setVertices have 11 fields.\n[openstudio.model.PlanarSurface] <-2> After clearExtensibleGroups in setVertices have 11 fields.\n[openstudio.model.PlanarSurface] <-2> After setVertices have 23 fields.  Size of vertices is 4.\n[openstudio.model.PlanarSurface] <-2> Before setVertices have 11 fields.\n[openstudio.model.PlanarSurface] <-2> After clearExtensibleGroups in setVertices have 11 fields.\n[openstudio.model.PlanarSurface] <-2> After setVertices have 23 fields.  Size of vertices is 4.\n[openstudio.model.PlanarSurface] <-2> Before setVertices have 11 fields.\n[openstudio.model.PlanarSurface] <-2> After clearExtensibleGroups in setVertices have 11 fields.\n[openstudio.model.PlanarSurface] <-2> After setVertices have 23 fields.  Size of vertices is 4.\n[openstudio.model.PlanarSurface] <-2> Before setVertices have 11 fields.\n[openstudio.model.PlanarSurface] <-2> After clearExtensibleGroups in setVertices have 11 fields.\n[openstudio.model.PlanarSurface] <-2> After setVertices have 23 fields.  Size of vertices is 4.\n[openstudio.model.PlanarSurface] <-2> Before setVertices have 11 fields.\n[openstudio.model.PlanarSurface] <-2> After clearExtensibleGroups in setVertices have 11 fields.\n[openstudio.model.PlanarSurface] <-2> After setVertices have 23 fields.  Size of vertices is 4.\n[openstudio.model.PlanarSurface] <-2> Before setVertices have 11 fields.\n[openstudio.model.PlanarSurface] <-2> After clearExtensibleGroups in setVertices have 11 fields.\n[openstudio.model.PlanarSurface] <-2> After setVertices have 23 fields.  Size of vertices is 4.\n[openstudio.model.PlanarSurface] <-2> Before setVertices have 11 fields.\n[openstudio.model.PlanarSurface] <-2> After clearExtensibleGroups in setVertices have 11 fields.\n[openstudio.model.PlanarSurface] <-2> After setVertices have 23 fields.  Size of vertices is 4.\n[openstudio.model.PlanarSurface] <-2> Before setVertices have 11 fields.\n[openstudio.model.PlanarSurface] <-2> After clearExtensibleGroups in setVertices have 11 fields.\n[openstudio.model.PlanarSurface] <-2> After setVertices have 23 fields.  Size of vertices is 4.\n[openstudio.model.PlanarSurface] <-2> Before setVertices have 11 fields.\n[openstudio.model.PlanarSurface] <-2> After clearExtensibleGroups in setVertices have 11 fields.\n[openstudio.model.PlanarSurface] <-2> After setVertices have 23 fields.  Size of vertices is 4.\n[openstudio.model.PlanarSurface] <-2> Before setVertices have 11 fields.\n[openstudio.model.PlanarSurface] <-2> After clearExtensibleGroups in setVertices have 11 fields.\n[openstudio.model.PlanarSurface] <-2> After setVertices have 23 fields.  Size of vertices is 4.\n[openstudio.model.PlanarSurface] <-2> Before setVertices have 11 fields.\n[openstudio.model.PlanarSurface] <-2> After clearExtensibleGroups in setVertices have 11 fields.\n[openstudio.model.PlanarSurface] <-2> After setVertices have 23 fields.  Size of vertices is 4.\n[openstudio.model.PlanarSurface] <-2> Before setVertices have 11 fields.\n[openstudio.model.PlanarSurface] <-2> After clearExtensibleGroups in setVertices have 11 fields.\n[openstudio.model.PlanarSurface] <-2> After setVertices have 23 fields.  Size of vertices is 4.\n[openstudio.model.PlanarSurface] <-2> Before setVertices have 11 fields.\n[openstudio.model.PlanarSurface] <-2> After clearExtensibleGroups in setVertices have 11 fields.\n[openstudio.model.PlanarSurface] <-2> After setVertices have 23 fields.  Size of vertices is 4.\n[openstudio.model.PlanarSurface] <-2> Before setVertices have 11 fields.\n[openstudio.model.PlanarSurface] <-2> After clearExtensibleGroups in setVertices have 11 fields.\n[openstudio.model.PlanarSurface] <-2> After setVertices have 23 fields.  Size of vertices is 4.\n[openstudio.model.PlanarSurface] <-2> Before setVertices have 11 fields.\n[openstudio.model.PlanarSurface] <-2> After clearExtensibleGroups in setVertices have 11 fields.\n[openstudio.model.PlanarSurface] <-2> After setVertices have 23 fields.  Size of vertices is 4.\n[openstudio.model.PlanarSurface] <-2> Before setVertices have 11 fields.\n[openstudio.model.PlanarSurface] <-2> After clearExtensibleGroups in setVertices have 11 fields.\n[openstudio.model.PlanarSurface] <-2> After setVertices have 23 fields.  Size of vertices is 4.\n[openstudio.model.PlanarSurface] <-2> Before setVertices have 11 fields.\n[openstudio.model.PlanarSurface] <-2> After clearExtensibleGroups in setVertices have 11 fields.\n[openstudio.model.PlanarSurface] <-2> After setVertices have 23 fields.  Size of vertices is 4.\n[openstudio.model.PlanarSurface] <-2> Before setVertices have 11 fields.\n[openstudio.model.PlanarSurface] <-2> After clearExtensibleGroups in setVertices have 11 fields.\n[openstudio.model.PlanarSurface] <-2> After setVertices have 23 fields.  Size of vertices is 4.\n[openstudio.model.PlanarSurface] <-2> Before setVertices have 11 fields.\n[openstudio.model.PlanarSurface] <-2> After clearExtensibleGroups in setVertices have 11 fields.\n[openstudio.model.PlanarSurface] <-2> After setVertices have 23 fields.  Size of vertices is 4.\n[openstudio.model.PlanarSurface] <-2> Before setVertices have 11 fields.\n[openstudio.model.PlanarSurface] <-2> After clearExtensibleGroups in setVertices have 11 fields.\n[openstudio.model.PlanarSurface] <-2> After setVertices have 23 fields.  Size of vertices is 4.\n[openstudio.model.PlanarSurface] <-2> Before setVertices have 11 fields.\n[openstudio.model.PlanarSurface] <-2> After clearExtensibleGroups in setVertices have 11 fields.\n[openstudio.model.PlanarSurface] <-2> After setVertices have 23 fields.  Size of vertices is 4.\n[openstudio.model.PlanarSurface] <-2> Before setVertices have 11 fields.\n[openstudio.model.PlanarSurface] <-2> After clearExtensibleGroups in setVertices have 11 fields.\n[openstudio.model.PlanarSurface] <-2> After setVertices have 23 fields.  Size of vertices is 4.\n[openstudio.model.PlanarSurface] <-2> Before setVertices have 11 fields.\n[openstudio.model.PlanarSurface] <-2> After clearExtensibleGroups in setVertices have 11 fields.\n[openstudio.model.PlanarSurface] <-2> After setVertices have 23 fields.  Size of vertices is 4.\n[openstudio.model.PlanarSurface] <-2> Before setVertices have 11 fields.\n[openstudio.model.PlanarSurface] <-2> After clearExtensibleGroups in setVertices have 11 fields.\n[openstudio.model.PlanarSurface] <-2> After setVertices have 23 fields.  Size of vertices is 4.\n[openstudio.model.PlanarSurface] <-2> Before setVertices have 11 fields.\n[openstudio.model.PlanarSurface] <-2> After clearExtensibleGroups in setVertices have 11 fields.\n[openstudio.model.PlanarSurface] <-2> After setVertices have 23 fields.  Size of vertices is 4.\n[openstudio.WorkflowStepResult] <-2> WorkflowStepResult::initialCondition is deprecated, use stepInitialCondition instead\n[openstudio.WorkflowStepResult] <-2> WorkflowStepResult::finalCondition is deprecated, use stepFinalCondition instead\n[openstudio.WorkflowStepResult] <-2> WorkflowStepResult::finalCondition is deprecated, use stepFinalCondition instead\n[openstudio.WorkflowStepResult] <-2> WorkflowStepResult::warnings is deprecated, use stepWarnings instead\n[openstudio.WorkflowStepResult] <-2> WorkflowStepResult::info is deprecated, use stepInfo instead\n[openstudio.WorkflowStepResult] <-2> WorkflowStepResult::errors is deprecated, use stepErrors instead\n[openstudio.WorkflowStepResult] <-2> WorkflowStepResult::errors is deprecated, use stepErrors instead\n[openstudio.WorkflowStepResult] <-2> WorkflowStepResult::value is deprecated, use stepResult instead\n[openstudio.WorkflowStepResult] <0> WorkflowStepResult value called with undefined stepResult, returning 'Success'\n[openstudio.measure.OSRunner] <1> Cannot find current Workflow Step\n[openstudio.WorkflowStepResult] <-2> WorkflowStepResult::initialCondition is deprecated, use stepInitialCondition instead\n[openstudio.WorkflowStepResult] <-2> WorkflowStepResult::finalCondition is deprecated, use stepFinalCondition instead\n[openstudio.WorkflowStepResult] <-2> WorkflowStepResult::warnings is deprecated, use stepWarnings instead\n[openstudio.WorkflowStepResult] <-2> WorkflowStepResult::info is deprecated, use stepInfo instead\n[openstudio.WorkflowStepResult] <-2> WorkflowStepResult::errors is deprecated, use stepErrors instead\n[openstudio.WorkflowStepResult] <-2> WorkflowStepResult::errors is deprecated, use stepErrors instead\n[openstudio.WorkflowStepResult] <-2> WorkflowStepResult::value is deprecated, use stepResult instead\n[openstudio.WorkflowStepResult] <0> WorkflowStepResult value called with undefined stepResult, returning 'Success'\n[openstudio.measure.OSRunner] <1> Cannot find current Workflow Step\n[openstudio.WorkflowStepResult] <-2> WorkflowStepResult::initialCondition is deprecated, use stepInitialCondition instead\n[openstudio.WorkflowStepResult] <-2> WorkflowStepResult::finalCondition is deprecated, use stepFinalCondition instead\n[openstudio.WorkflowStepResult] <-2> WorkflowStepResult::warnings is deprecated, use stepWarnings instead\n[openstudio.WorkflowStepResult] <-2> WorkflowStepResult::info is deprecated, use stepInfo instead\n[openstudio.WorkflowStepResult] <-2> WorkflowStepResult::errors is deprecated, use stepErrors instead\n[openstudio.WorkflowStepResult] <-2> WorkflowStepResult::errors is deprecated, use stepErrors instead\n[openstudio.WorkflowStepResult] <-2> WorkflowStepResult::value is deprecated, use stepResult instead\n[openstudio.WorkflowStepResult] <0> WorkflowStepResult value called with undefined stepResult, returning 'Success'\n[openstudio.measure.OSRunner] <1> Cannot find current Workflow Step\n[openstudio.WorkflowStepResult] <-2> WorkflowStepResult::initialCondition is deprecated, use stepInitialCondition instead\n[openstudio.WorkflowStepResult] <-2> WorkflowStepResult::finalCondition is deprecated, use stepFinalCondition instead\n[openstudio.WorkflowStepResult] <-2> WorkflowStepResult::warnings is deprecated, use stepWarnings instead\n[openstudio.WorkflowStepResult] <-2> WorkflowStepResult::info is deprecated, use stepInfo instead\n[openstudio.WorkflowStepResult] <-2> WorkflowStepResult::errors is deprecated, use stepErrors instead\n[openstudio.WorkflowStepResult] <-2> WorkflowStepResult::errors is deprecated, use stepErrors instead\n[openstudio.WorkflowStepResult] <-2> WorkflowStepResult::value is deprecated, use stepResult instead\n[openstudio.WorkflowStepResult] <0> WorkflowStepResult value called with undefined stepResult, returning 'Success'\n[openstudio.measure.OSRunner] <1> Cannot find current Workflow Step\n[openstudio.WorkflowStepResult] <-2> WorkflowStepResult::initialCondition is deprecated, use stepInitialCondition instead\n[openstudio.WorkflowStepResult] <-2> WorkflowStepResult::finalCondition is deprecated, use stepFinalCondition instead\n[openstudio.WorkflowStepResult] <-2> WorkflowStepResult::warnings is deprecated, use stepWarnings instead\n[openstudio.WorkflowStepResult] <-2> WorkflowStepResult::info is deprecated, use stepInfo instead\n[openstudio.WorkflowStepResult] <-2> WorkflowStepResult::errors is deprecated, use stepErrors instead\n[openstudio.WorkflowStepResult] <-2> WorkflowStepResult::errors is deprecated, use stepErrors instead\n[openstudio.WorkflowStepResult] <-2> WorkflowStepResult::value is deprecated, use stepResult instead\n[openstudio.WorkflowStepResult] <0> WorkflowStepResult value called with undefined stepResult, returning 'Success'\n[openstudio.measure.OSRunner] <1> Cannot find current Workflow Step\n[openstudio.EpwFile] <0> Successive data points (1976-Jan-31 to 1977-Feb-01, ending on line 753) are greater than 1 day apart in EPW file '/mnt/openstudio/analysis_8cf45e5e-588f-48ce-a639-1cef97a63274/weather/USA_MA_Boston-Logan.Intl.AP.725090_TMY3.epw'. Data will be treated as typical (TMY)\n[openstudio.WorkflowStepResult] <-2> WorkflowStepResult::initialCondition is deprecated, use stepInitialCondition instead\n[openstudio.WorkflowStepResult] <-2> WorkflowStepResult::finalCondition is deprecated, use stepFinalCondition instead\n[openstudio.WorkflowStepResult] <-2> WorkflowStepResult::finalCondition is deprecated, use stepFinalCondition instead\n[openstudio.WorkflowStepResult] <-2> WorkflowStepResult::warnings is deprecated, use stepWarnings instead\n[openstudio.WorkflowStepResult] <-2> WorkflowStepResult::info is deprecated, use stepInfo instead\n[openstudio.WorkflowStepResult] <-2> WorkflowStepResult::errors is deprecated, use stepErrors instead\n[openstudio.WorkflowStepResult] <-2> WorkflowStepResult::errors is deprecated, use stepErrors instead\n[openstudio.WorkflowStepResult] <-2> WorkflowStepResult::value is deprecated, use stepResult instead\n[openstudio.WorkflowStepResult] <0> WorkflowStepResult value called with undefined stepResult, returning 'Success'\n[openstudio.measure.OSRunner] <1> Cannot find current Workflow Step\n[openstudio.WorkflowStepResult] <-2> WorkflowStepResult::initialCondition is deprecated, use stepInitialCondition instead\n[openstudio.WorkflowStepResult] <-2> WorkflowStepResult::finalCondition is deprecated, use stepFinalCondition instead\n[openstudio.WorkflowStepResult] <-2> WorkflowStepResult::warnings is deprecated, use stepWarnings instead\n[openstudio.WorkflowStepResult] <-2> WorkflowStepResult::info is deprecated, use stepInfo instead\n[openstudio.WorkflowStepResult] <-2> WorkflowStepResult::errors is deprecated, use stepErrors instead\n[openstudio.WorkflowStepResult] <-2> WorkflowStepResult::errors is deprecated, use stepErrors instead\n[openstudio.WorkflowStepResult] <-2> WorkflowStepResult::value is deprecated, use stepResult instead\n[openstudio.WorkflowStepResult] <0> WorkflowStepResult value called with undefined stepResult, returning 'Success'\n[openstudio.measure.OSRunner] <1> Cannot find current Workflow Step\n[openstudio.WorkflowStepResult] <-2> WorkflowStepResult::initialCondition is deprecated, use stepInitialCondition instead\n[openstudio.WorkflowStepResult] <-2> WorkflowStepResult::initialCondition is deprecated, use stepInitialCondition instead\n[openstudio.WorkflowStepResult] <-2> WorkflowStepResult::finalCondition is deprecated, use stepFinalCondition instead\n[openstudio.WorkflowStepResult] <-2> WorkflowStepResult::finalCondition is deprecated, use stepFinalCondition instead\n[openstudio.WorkflowStepResult] <-2> WorkflowStepResult::warnings is deprecated, use stepWarnings instead\n[openstudio.WorkflowStepResult] <-2> WorkflowStepResult::info is deprecated, use stepInfo instead\n[openstudio.WorkflowStepResult] <-2> WorkflowStepResult::errors is deprecated, use stepErrors instead\n[openstudio.WorkflowStepResult] <-2> WorkflowStepResult::errors is deprecated, use stepErrors instead\n[openstudio.WorkflowStepResult] <-2> WorkflowStepResult::value is deprecated, use stepResult instead\n[openstudio.WorkflowStepResult] <0> WorkflowStepResult value called with undefined stepResult, returning 'Success'\n[openstudio.measure.OSRunner] <1> Cannot find current Workflow Step\n[openstudio.WorkflowStepResult] <-2> WorkflowStepResult::initialCondition is deprecated, use stepInitialCondition instead\n[openstudio.WorkflowStepResult] <-2> WorkflowStepResult::finalCondition is deprecated, use stepFinalCondition instead\n[openstudio.WorkflowStepResult] <-2> WorkflowStepResult::finalCondition is deprecated, use stepFinalCondition instead\n[openstudio.WorkflowStepResult] <-2> WorkflowStepResult::warnings is deprecated, use stepWarnings instead\n[openstudio.WorkflowStepResult] <-2> WorkflowStepResult::info is deprecated, use stepInfo instead\n[openstudio.WorkflowStepResult] <-2> WorkflowStepResult::errors is deprecated, use stepErrors instead\n[openstudio.WorkflowStepResult] <-2> WorkflowStepResult::errors is deprecated, use stepErrors instead\n[openstudio.WorkflowStepResult] <-2> WorkflowStepResult::value is deprecated, use stepResult instead\n[openstudio.WorkflowStepResult] <0> WorkflowStepResult value called with undefined stepResult, returning 'Success'\n[openstudio.measure.OSRunner] <1> Cannot find current Workflow Step\n[openstudio.WorkflowStepResult] <-2> WorkflowStepResult::initialCondition is deprecated, use stepInitialCondition instead\n[openstudio.WorkflowStepResult] <-2> WorkflowStepResult::finalCondition is deprecated, use stepFinalCondition instead\n[openstudio.WorkflowStepResult] <-2> WorkflowStepResult::finalCondition is deprecated, use stepFinalCondition instead\n[openstudio.WorkflowStepResult] <-2> WorkflowStepResult::warnings is deprecated, use stepWarnings instead\n[openstudio.WorkflowStepResult] <-2> WorkflowStepResult::info is deprecated, use stepInfo instead\n[openstudio.WorkflowStepResult] <-2> WorkflowStepResult::errors is deprecated, use stepErrors instead\n[openstudio.WorkflowStepResult] <-2> WorkflowStepResult::errors is deprecated, use stepErrors instead\n[openstudio.WorkflowStepResult] <-2> WorkflowStepResult::value is deprecated, use stepResult instead\n[openstudio.WorkflowStepResult] <0> WorkflowStepResult value called with undefined stepResult, returning 'Success'\n[openstudio.measure.OSRunner] <1> Cannot find current Workflow Step\n[openstudio.WorkflowStepResult] <-2> WorkflowStepResult::initialCondition is deprecated, use stepInitialCondition instead\n[openstudio.WorkflowStepResult] <-2> WorkflowStepResult::finalCondition is deprecated, use stepFinalCondition instead\n[openstudio.WorkflowStepResult] <-2> WorkflowStepResult::warnings is deprecated, use stepWarnings instead\n[openstudio.WorkflowStepResult] <-2> WorkflowStepResult::info is deprecated, use stepInfo instead\n[openstudio.WorkflowStepResult] <-2> WorkflowStepResult::errors is deprecated, use stepErrors instead\n[openstudio.WorkflowStepResult] <-2> WorkflowStepResult::errors is deprecated, use stepErrors instead\n[openstudio.WorkflowStepResult] <-2> WorkflowStepResult::value is deprecated, use stepResult instead\n[openstudio.WorkflowStepResult] <0> WorkflowStepResult value called with undefined stepResult, returning 'Success'\n[openstudio.measure.OSRunner] <1> Cannot find current Workflow Step\n[openstudio.WorkflowStepResult] <-2> WorkflowStepResult::initialCondition is deprecated, use stepInitialCondition instead\n[openstudio.WorkflowStepResult] <-2> WorkflowStepResult::finalCondition is deprecated, use stepFinalCondition instead\n[openstudio.WorkflowStepResult] <-2> WorkflowStepResult::warnings is deprecated, use stepWarnings instead\n[openstudio.WorkflowStepResult] <-2> WorkflowStepResult::info is deprecated, use stepInfo instead\n[openstudio.WorkflowStepResult] <-2> WorkflowStepResult::errors is deprecated, use stepErrors instead\n[openstudio.WorkflowStepResult] <-2> WorkflowStepResult::errors is deprecated, use stepErrors instead\n[openstudio.WorkflowStepResult] <-2> WorkflowStepResult::value is deprecated, use stepResult instead\n[openstudio.WorkflowStepResult] <0> WorkflowStepResult value called with undefined stepResult, returning 'Success'\n[openstudio.measure.OSRunner] <1> Cannot find current Workflow Step\n[openstudio.EpwFile] <0> Successive data points (1976-Jan-31 to 1977-Feb-01, ending on line 753) are greater than 1 day apart in EPW file '/mnt/openstudio/analysis_8cf45e5e-588f-48ce-a639-1cef97a63274/weather/USA_MA_Boston-Logan.Intl.AP.725090_TMY3.epw'. Data will be treated as typical (TMY)\n[utilities.idf.Workspace] <-1> Renamed Object of type 'OS:Schedule:Day' and named 'Schedule Day 11' to 'Schedule Day 14' to avoid a name conflict upon WorkspaceObject addition.\n[utilities.idf.Workspace] <-1> Renamed Object of type 'OS:Schedule:Day' and named 'Schedule Day 12' to 'Schedule Day 14' to avoid a name conflict upon WorkspaceObject addition.\n[utilities.idf.Workspace] <-1> Renamed Object of type 'OS:Schedule:Day' and named 'Schedule Day 11' to 'Schedule Day 15' to avoid a name conflict upon WorkspaceObject addition.\n[utilities.idf.Workspace] <-1> Renamed Object of type 'OS:Schedule:Day' and named 'Schedule Day 12' to 'Schedule Day 15' to avoid a name conflict upon WorkspaceObject addition.\n[openstudio.WorkflowStepResult] <-2> WorkflowStepResult::initialCondition is deprecated, use stepInitialCondition instead\n[openstudio.WorkflowStepResult] <-2> WorkflowStepResult::finalCondition is deprecated, use stepFinalCondition instead\n[openstudio.WorkflowStepResult] <-2> WorkflowStepResult::warnings is deprecated, use stepWarnings instead\n[openstudio.WorkflowStepResult] <-2> WorkflowStepResult::info is deprecated, use stepInfo instead\n[openstudio.WorkflowStepResult] <-2> WorkflowStepResult::errors is deprecated, use stepErrors instead\n[openstudio.WorkflowStepResult] <-2> WorkflowStepResult::errors is deprecated, use stepErrors instead\n[openstudio.WorkflowStepResult] <-2> WorkflowStepResult::value is deprecated, use stepResult instead\n[openstudio.WorkflowStepResult] <0> WorkflowStepResult value called with undefined stepResult, returning 'Success'\n[openstudio.measure.OSRunner] <1> Cannot find current Workflow Step\n[openstudio.EpwFile] <0> Successive data points (1976-Jan-31 to 1977-Feb-01, ending on line 753) are greater than 1 day apart in EPW file '/mnt/openstudio/analysis_8cf45e5e-588f-48ce-a639-1cef97a63274/weather/USA_MA_Boston-Logan.Intl.AP.725090_TMY3.epw'. Data will be treated as typical (TMY)\n[utilities.idf.Workspace] <-1> Renamed Object of type 'OS:Schedule:Day' and named 'Schedule Day 2' to 'Schedule Day 13' to avoid a name conflict upon WorkspaceObject addition.\n[utilities.idf.Workspace] <-1> Renamed Object of type 'OS:Schedule:Day' and named 'Schedule Day 11' to 'Schedule Day 13' to avoid a name conflict upon WorkspaceObject addition.\n[utilities.idf.Workspace] <-1> Renamed Object of type 'OS:Schedule:Day' and named 'Schedule Day 2' to 'Schedule Day 14' to avoid a name conflict upon WorkspaceObject addition.\n[utilities.idf.Workspace] <-1> Renamed Object of type 'OS:Schedule:Day' and named 'Schedule Day 11' to 'Schedule Day 14' to avoid a name conflict upon WorkspaceObject addition.\n[openstudio.WorkflowStepResult] <-2> WorkflowStepResult::initialCondition is deprecated, use stepInitialCondition instead\n[openstudio.WorkflowStepResult] <-2> WorkflowStepResult::finalCondition is deprecated, use stepFinalCondition instead\n[openstudio.WorkflowStepResult] <-2> WorkflowStepResult::warnings is deprecated, use stepWarnings instead\n[openstudio.WorkflowStepResult] <-2> WorkflowStepResult::info is deprecated, use stepInfo instead\n[openstudio.WorkflowStepResult] <-2> WorkflowStepResult::errors is deprecated, use stepErrors instead\n[openstudio.WorkflowStepResult] <-2> WorkflowStepResult::errors is deprecated, use stepErrors instead\n[openstudio.WorkflowStepResult] <-2> WorkflowStepResult::value is deprecated, use stepResult instead\n[openstudio.WorkflowStepResult] <0> WorkflowStepResult value called with undefined stepResult, returning 'Success'\n[openstudio.measure.OSRunner] <1> Cannot find current Workflow Step\n[openstudio.WorkflowStepResult] <-2> WorkflowStepResult::initialCondition is deprecated, use stepInitialCondition instead\n[openstudio.WorkflowStepResult] <-2> WorkflowStepResult::finalCondition is deprecated, use stepFinalCondition instead\n[openstudio.WorkflowStepResult] <-2> WorkflowStepResult::warnings is deprecated, use stepWarnings instead\n[openstudio.WorkflowStepResult] <-2> WorkflowStepResult::info is deprecated, use stepInfo instead\n[openstudio.WorkflowStepResult] <-2> WorkflowStepResult::errors is deprecated, use stepErrors instead\n[openstudio.WorkflowStepResult] <-2> WorkflowStepResult::errors is deprecated, use stepErrors instead\n[openstudio.WorkflowStepResult] <-2> WorkflowStepResult::value is deprecated, use stepResult instead\n[openstudio.WorkflowStepResult] <0> WorkflowStepResult value called with undefined stepResult, returning 'Success'\n[openstudio.measure.OSRunner] <1> Cannot find current Workflow Step\n[utilities.idf.Workspace] <-1> Renamed Object of type 'OS:Schedule:Day' and named 'Schedule Day 14' to 'Schedule Day 17' to avoid a name conflict upon WorkspaceObject addition.\n[utilities.idf.Workspace] <-1> Renamed Object of type 'OS:Schedule:Day' and named 'Schedule Day 15' to 'Schedule Day 17' to avoid a name conflict upon WorkspaceObject addition.\n[openstudio.WorkflowStepResult] <-2> WorkflowStepResult::initialCondition is deprecated, use stepInitialCondition instead\n[openstudio.WorkflowStepResult] <-2> WorkflowStepResult::finalCondition is deprecated, use stepFinalCondition instead\n[openstudio.WorkflowStepResult] <-2> WorkflowStepResult::finalCondition is deprecated, use stepFinalCondition instead\n[openstudio.WorkflowStepResult] <-2> WorkflowStepResult::warnings is deprecated, use stepWarnings instead\n[openstudio.WorkflowStepResult] <-2> WorkflowStepResult::info is deprecated, use stepInfo instead\n[openstudio.WorkflowStepResult] <-2> WorkflowStepResult::errors is deprecated, use stepErrors instead\n[openstudio.WorkflowStepResult] <-2> WorkflowStepResult::errors is deprecated, use stepErrors instead\n[openstudio.WorkflowStepResult] <-2> WorkflowStepResult::value is deprecated, use stepResult instead\n[openstudio.WorkflowStepResult] <0> WorkflowStepResult value called with undefined stepResult, returning 'Success'\n[openstudio.measure.OSRunner] <1> Cannot find current Workflow Step\n[openstudio.WorkflowStepResult] <-2> WorkflowStepResult::initialCondition is deprecated, use stepInitialCondition instead\n[openstudio.WorkflowStepResult] <-2> WorkflowStepResult::finalCondition is deprecated, use stepFinalCondition instead\n[openstudio.WorkflowStepResult] <-2> WorkflowStepResult::finalCondition is deprecated, use stepFinalCondition instead\n[openstudio.WorkflowStepResult] <-2> WorkflowStepResult::warnings is deprecated, use stepWarnings instead\n[openstudio.WorkflowStepResult] <-2> WorkflowStepResult::info is deprecated, use stepInfo instead\n[openstudio.WorkflowStepResult] <-2> WorkflowStepResult::errors is deprecated, use stepErrors instead\n[openstudio.WorkflowStepResult] <-2> WorkflowStepResult::errors is deprecated, use stepErrors instead\n[openstudio.WorkflowStepResult] <-2> WorkflowStepResult::value is deprecated, use stepResult instead\n[openstudio.WorkflowStepResult] <0> WorkflowStepResult value called with undefined stepResult, returning 'Success'\n[openstudio.measure.OSRunner] <1> Cannot find current Workflow Step\n[openstudio.WorkflowStepResult] <-2> WorkflowStepResult::initialCondition is deprecated, use stepInitialCondition instead\n[openstudio.WorkflowStepResult] <-2> WorkflowStepResult::finalCondition is deprecated, use stepFinalCondition instead\n[openstudio.WorkflowStepResult] <-2> WorkflowStepResult::finalCondition is deprecated, use stepFinalCondition instead\n[openstudio.WorkflowStepResult] <-2> WorkflowStepResult::warnings is deprecated, use stepWarnings instead\n[openstudio.WorkflowStepResult] <-2> WorkflowStepResult::info is deprecated, use stepInfo instead\n[openstudio.WorkflowStepResult] <-2> WorkflowStepResult::errors is deprecated, use stepErrors instead\n[openstudio.WorkflowStepResult] <-2> WorkflowStepResult::errors is deprecated, use stepErrors instead\n[openstudio.WorkflowStepResult] <-2> WorkflowStepResult::value is deprecated, use stepResult instead\n[openstudio.WorkflowStepResult] <0> WorkflowStepResult value called with undefined stepResult, returning 'Success'\n[openstudio.measure.OSRunner] <1> Cannot find current Workflow Step\n[openstudio.WorkflowStepResult] <-2> WorkflowStepResult::initialCondition is deprecated, use stepInitialCondition instead\n[openstudio.WorkflowStepResult] <-2> WorkflowStepResult::finalCondition is deprecated, use stepFinalCondition instead\n[openstudio.WorkflowStepResult] <-2> WorkflowStepResult::finalCondition is deprecated, use stepFinalCondition instead\n[openstudio.WorkflowStepResult] <-2> WorkflowStepResult::warnings is deprecated, use stepWarnings instead\n[openstudio.WorkflowStepResult] <-2> WorkflowStepResult::info is deprecated, use stepInfo instead\n[openstudio.WorkflowStepResult] <-2> WorkflowStepResult::errors is deprecated, use stepErrors instead\n[openstudio.WorkflowStepResult] <-2> WorkflowStepResult::errors is deprecated, use stepErrors instead\n[openstudio.WorkflowStepResult] <-2> WorkflowStepResult::value is deprecated, use stepResult instead\n[openstudio.WorkflowStepResult] <0> WorkflowStepResult value called with undefined stepResult, returning 'Success'\n[openstudio.measure.OSRunner] <1> Cannot find current Workflow Step\n[utilities.idf.Workspace] <-1> Renamed Object of type 'OS:Schedule:Day' and named 'Schedule Day 2
[...]
            "value": "None"
          },
          {
            "name": "misc_pool_pump",
            "value": "None"
          },
          {
            "name": "misc_pool_schedule",
            "value": "National Average"
          },
          {
            "name": "misc_well_pump",
            "value": "None"
          },
          {
            "name": "ducts",
            "value": "In Finished Space"
          },
          {
            "name": "infiltration",
            "value": "5 ACH50"
          },
          {
            "name": "natural_ventilation",
            "value": "Year-Round, 3 days/wk"
          },
          {
            "name": "mechanical_ventilation",
            "value": "None"
          },
          {
            "name": "bathroom_spot_vent_hour",
            "value": "Hour21"
          },
          {
            "name": "range_spot_vent_hour",
            "value": "Hour16"
          },
          {
            "name": "pv",
            "value": "None"
          },
          {
            "name": "days_shifted",
            "value": "Day87"
          },
          {
            "name": "location_city",
            "value": "Boston Logan IntL Arpt"
          },
          {
            "name": "location_state",
            "value": "MA"
          },
          {
            "name": "location_latitude",
            "value": "42.37"
          },
          {
            "name": "location_longitude",
            "value": "-71.02"
          },
          {
            "name": "climate_zone_ba",
            "value": "Cold"
          },
          {
            "name": "climate_zone_iecc",
            "value": "5A"
          },
          {
            "name": "units_represented",
            "value": "1"
          },
          {
            "name": "units_modeled",
            "value": "1"
          },
          {
            "name": "weight",
            "value": "0.0"
          }
        ],
        "step_warnings": []
      }
    },
    {
      "arguments": {
        "include_enduse_subcategories": false
      },
      "description": "Reports simulation outputs of interest.",
      "measure_dir_name": "SimulationOutputReport",
      "name": "simulation_output_report",
      "result": {
        "completed_at": "20230213T214715Z",
        "measure_class_name": "SimulationOutputReport",
        "measure_display_name": "Simulation Output Report",
        "measure_name": "simulation_output_report",
        "measure_taxonomy": "Reporting.QAQC",
        "measure_type": "ReportingMeasure",
        "measure_uid": "fc337100-8634-404e-8966-01243d292a79",
        "measure_version_id": "995d7b67-e7c1-4510-91fd-4dff8357ca00",
        "measure_version_modified": "20200129T202940Z",
        "measure_xml_checksum": "2C8A3EEF",
        "started_at": "20230213T214712Z",
        "stderr": "",
        "stdout": "[OpenStudio.Measure] <0> OSArgumentVector is deprecated, use OpenStudio::Measure::OSArgumentVector instead.\n[openstudio.energyplus.SqlFile] <-2> Dictionary Built\n[openstudio.WorkflowStepResult] <-2> WorkflowStepResult::value is deprecated, use stepResult instead\n",
        "step_errors": [],
        "step_files": [],
        "step_info": [
          "Registering 20266.98 for total_site_electricity_kwh.",
          "Registering 20266.98 for net_site_electricity_kwh.",
          "Registering 8766.87 for electricity_heating_kwh.",
          "Registering 0.0 for electricity_central_system_heating_kwh.",
          "Registering 545.55 for electricity_cooling_kwh.",
          "Registering 0.0 for electricity_central_system_cooling_kwh.",
          "Registering 2359.23 for electricity_interior_lighting_kwh.",
          "Registering 523.6 for electricity_exterior_lighting_kwh.",
          "Registering 0.0 for electricity_exterior_holiday_lighting_kwh.",
          "Registering 92.83 for electricity_garage_lighting_kwh.",
          "Registering 7789.03 for electricity_interior_equipment_kwh.",
          "Registering 0.0 for electricity_fans_heating_kwh.",
          "Registering 189.88 for electricity_fans_cooling_kwh.",
          "Registering 0.0 for electricity_pumps_heating_kwh.",
          "Registering 0.0 for electricity_central_system_pumps_heating_kwh.",
          "Registering 0.0 for electricity_pumps_cooling_kwh.",
          "Registering 0.0 for electricity_central_system_pumps_cooling_kwh.",
          "Registering 0.0 for electricity_water_systems_kwh.",
          "Registering 0.0 for electricity_pv_kwh.",
          "Registering 216.01 for total_site_natural_gas_therm.",
          "Registering 0.0 for natural_gas_heating_therm.",
          "Registering 0.0 for natural_gas_central_system_heating_therm.",
          "Registering 0.0 for natural_gas_interior_equipment_therm.",
          "Registering 216.01 for natural_gas_water_systems_therm.",
          "Registering 0.0 for total_site_fuel_oil_mbtu.",
          "Registering 0.0 for fuel_oil_heating_mbtu.",
          "Registering 0.0 for fuel_oil_central_system_heating_mbtu.",
          "Registering 0.0 for fuel_oil_water_systems_mbtu.",
          "Registering 0.0 for total_site_propane_mbtu.",
          "Registering 0.0 for propane_heating_mbtu.",
          "Registering 0.0 for propane_central_system_heating_mbtu.",
          "Registering 0.0 for propane_interior_equipment_mbtu.",
          "Registering 0.0 for propane_water_systems_mbtu.",
          "Registering 0.0 for total_site_wood_mbtu.",
          "Registering 0.0 for wood_heating_mbtu.",
          "Registering 90.75 for total_site_energy_mbtu.",
          "Registering 90.75 for net_site_energy_mbtu.",
          "Registering 182.17 for hours_heating_setpoint_not_met.",
          "Registering 2497.0 for hours_cooling_setpoint_not_met.",
          "Registering 5304.29 for hvac_cooling_capacity_w.",
          "Registering 8565.14 for hvac_heating_capacity_w.",
          "Registering 0.0 for hvac_heating_supp_capacity_w.",
          "Registering 0.0 for weight.",
          "Registering (blank) for upgrade_name.",
          "Registering (blank) for upgrade_cost_usd."
        ],
        "step_result": "Success",
        "step_values": [
          {
            "name": "include_enduse_subcategories",
            "value": false
          },
          {
            "name": "total_site_electricity_kwh",
            "value": 20266.98256859702
          },
          {
            "name": "net_site_electricity_kwh",
            "value": 20266.98256859702
          },
          {
            "name": "electricity_heating_kwh",
            "value": 8766.87056964738
          },
          {
            "name": "electricity_central_system_heating_kwh",
            "value": 0
          },
          {
            "name": "electricity_cooling_kwh",
            "value": 545.5469272902047
          },
          {
            "name": "electricity_central_system_cooling_kwh",
            "value": 0
          },
          {
            "name": "electricity_interior_lighting_kwh",
            "value": 2359.2278015627858
          },
          {
            "name": "electricity_exterior_lighting_kwh",
            "value": 523.6041294283776
          },
          {
            "name": "electricity_exterior_holiday_lighting_kwh",
            "value": 0
          },
          {
            "name": "electricity_garage_lighting_kwh",
            "value": 92.82839186555898
          },
          {
            "name": "electricity_interior_equipment_kwh",
            "value": 7789.025382299309
          },
          {
            "name": "electricity_fans_heating_kwh",
            "value": 0
          },
          {
            "name": "electricity_fans_cooling_kwh",
            "value": 189.87936650340455
          },
          {
            "name": "electricity_pumps_heating_kwh",
            "value": 0
          },
          {
            "name": "electricity_central_system_pumps_heating_kwh",
            "value": 0
          },
          {
            "name": "electricity_pumps_cooling_kwh",
            "value": 0
          },
          {
            "name": "electricity_central_system_pumps_cooling_kwh",
            "value": 0
          },
          {
            "name": "electricity_water_systems_kwh",
            "value": 0
          },
          {
            "name": "electricity_pv_kwh",
            "value": 0
          },
          {
            "name": "total_site_natural_gas_therm",
            "value": 216.01070183031496
          },
          {
            "name": "natural_gas_heating_therm",
            "value": 0
          },
          {
            "name": "natural_gas_central_system_heating_therm",
            "value": 0
          },
          {
            "name": "natural_gas_interior_equipment_therm",
            "value": 0
          },
          {
            "name": "natural_gas_water_systems_therm",
            "value": 216.01070183031496
          },
          {
            "name": "total_site_fuel_oil_mbtu",
            "value": 0
          },
          {
            "name": "fuel_oil_heating_mbtu",
            "value": 0
          },
          {
            "name": "fuel_oil_central_system_heating_mbtu",
            "value": 0
          },
          {
            "name": "fuel_oil_water_systems_mbtu",
            "value": 0
          },
          {
            "name": "total_site_propane_mbtu",
            "value": 0
          },
          {
            "name": "propane_heating_mbtu",
            "value": 0
          },
          {
            "name": "propane_central_system_heating_mbtu",
            "value": 0
          },
          {
            "name": "propane_interior_equipment_mbtu",
            "value": 0
          },
          {
            "name": "propane_water_systems_mbtu",
            "value": 0
          },
          {
            "name": "total_site_wood_mbtu",
            "value": 0
          },
          {
            "name": "wood_heating_mbtu",
            "value": 0
          },
          {
            "name": "total_site_energy_mbtu",
            "value": 90.74968321289217
          },
          {
            "name": "net_site_energy_mbtu",
            "value": 90.74968321289217
          },
          {
            "name": "hours_heating_setpoint_not_met",
            "value": 182.17
          },
          {
            "name": "hours_cooling_setpoint_not_met",
            "value": 2497
          },
          {
            "name": "hvac_cooling_capacity_w",
            "value": 5304.28854480662
          },
          {
            "name": "hvac_heating_capacity_w",
            "value": 8565.136241576694
          },
          {
            "name": "hvac_heating_supp_capacity_w",
            "value": 0
          },
          {
            "name": "weight",
            "value": 0
          },
          {
            "name": "wall_area_above_grade_conditioned_ft_2",
            "value": 2450.84
          },
          {
            "name": "wall_area_above_grade_exterior_ft_2",
            "value": 2914.58
          },
          {
            "name": "wall_area_below_grade_ft_2",
            "value": 745.42
          },
          {
            "name": "floor_area_conditioned_ft_2",
            "value": 3000
          },
          {
            "name": "floor_area_attic_ft_2",
            "value": 1576
          },
          {
            "name": "floor_area_lighting_ft_2",
            "value": 3864
          },
          {
            "name": "roof_area_ft_2",
            "value": 1723.15
          },
          {
            "name": "window_area_ft_2",
            "value": 306.4
          },
          {
            "name": "door_area_ft_2",
            "value": 20
          },
          {
            "name": "duct_surface_area_ft_2",
            "value": 1080
          },
          {
            "name": "size_heating_system_kbtu_h",
            "value": 29.23
          },
          {
            "name": "size_cooling_system_kbtu_h",
            "value": 18.1
          },
          {
            "name": "size_water_heater_gal",
            "value": 40
          },
          {
            "name": "upgrade_name",
            "value": ""
          },
          {
            "name": "upgrade_cost_usd",
            "value": ""
          }
        ],
        "step_warnings": []
      }
    },
    {
      "arguments": {
        "include_enduse_subcategories": false,
        "reporting_frequency": "Hourly"
      },
      "description": "Exports timeseries output data to csv.",
      "measure_dir_name": "TimeseriesCSVExport",
      "name": "timeseries_csv_export",
      "result": {
        "completed_at": "20230213T214719Z",
        "measure_class_name": "TimeseriesCSVExport",
        "measure_display_name": "Timeseries CSV Export",
        "measure_name": "timeseries_csv_export",
        "measure_taxonomy": "Reporting.QAQC",
        "measure_type": "ReportingMeasure",
        "measure_uid": "2a3442c1-944d-4e91-9e11-11e0cf368c64",
        "measure_version_id": "4e80cb7a-a47b-4bbe-b35b-c09f4e38e642",
        "measure_version_modified": "20200130T154415Z",
        "measure_xml_checksum": "15BF4E57",
        "started_at": "20230213T214716Z",
        "stderr": "",
        "stdout": "[openstudio.energyplus.SqlFile] <-2> Dictionary Built\n[openstudio.energyplus.SqlFile] <-2> Making time series for envPeriod = 'RUN PERIOD 1', reportingFrequency = 'Hourly', timeSeriesName = 'Electricity:Facility', keyValue = ''\n[openstudio.energyplus.SqlFile] <-2> RUN PERIOD 1\n[openstudio.energyplus.SqlFile] <-2> Electricity:Facility\n[openstudio.energyplus.SqlFile] <-2> SQL Query:\nSELECT dt.VariableValue, Time.Year, Time.Month, Time.Day, Time.Interval FROM ReportMeterData dt INNER JOIN Time ON Time.timeIndex = dt.TimeIndex WHERE  dt.ReportMeterDataDictionaryIndex=14 AND Time.EnvironmentPeriodIndex = 1Return Code:\n100\n[openstudio.energyplus.SqlFile] <-2> Time series found\n[openstudio.EpwFile] <0> Successive data points (1976-Jan-31 to 1977-Feb-01, ending on line 753) are greater than 1 day apart in EPW file '/mnt/openstudio/analysis_8cf45e5e-588f-48ce-a639-1cef97a63274/weather/USA_MA_Boston-Logan.Intl.AP.725090_TMY3.epw'. Data will be treated as typical (TMY)\n",
        "step_errors": [],
        "step_files": [],
        "step_info": [
          "Exporting total_site_electricity_kwh.",
          "Exporting net_site_electricity_kwh.",
          "Exporting electricity_heating_kwh.",
          "Exporting electricity_central_system_heating_kwh.",
          "Exporting electricity_cooling_kwh.",
          "Exporting electricity_central_system_cooling_kwh.",
          "Exporting electricity_interior_lighting_kwh.",
          "Exporting electricity_exterior_lighting_kwh.",
          "Exporting electricity_exterior_holiday_lighting_kwh.",
          "Exporting electricity_garage_lighting_kwh.",
          "Exporting electricity_interior_equipment_kwh.",
          "Exporting electricity_fans_heating_kwh.",
          "Exporting electricity_fans_cooling_kwh.",
          "Exporting electricity_pumps_heating_kwh.",
          "Exporting electricity_central_system_pumps_heating_kwh.",
          "Exporting electricity_pumps_cooling_kwh.",
          "Exporting electricity_central_system_pumps_cooling_kwh.",
          "Exporting electricity_water_systems_kwh.",
          "Exporting electricity_pv_kwh.",
          "Exporting total_site_natural_gas_therm.",
          "Exporting natural_gas_heating_therm.",
          "Exporting natural_gas_central_system_heating_therm.",
          "Exporting natural_gas_interior_equipment_therm.",
          "Exporting natural_gas_water_systems_therm.",
          "Exporting total_site_fuel_oil_mbtu.",
          "Exporting fuel_oil_heating_mbtu.",
          "Exporting fuel_oil_central_system_heating_mbtu.",
          "Exporting fuel_oil_interior_equipment_mbtu.",
          "Exporting fuel_oil_water_systems_mbtu.",
          "Exporting total_site_propane_mbtu.",
          "Exporting propane_heating_mbtu.",
          "Exporting propane_central_system_heating_mbtu.",
          "Exporting propane_interior_equipment_mbtu.",
          "Exporting propane_water_systems_mbtu.",
          "Exporting total_site_wood_mbtu.",
          "Exporting wood_heating_mbtu.",
          "Exporting total_site_energy_mbtu.",
          "Exporting net_site_energy_mbtu."
        ],
        "step_result": "Success",
        "step_values": [
          {
            "name": "reporting_frequency",
            "value": "Hourly"
          },
          {
            "name": "include_enduse_subcategories",
            "value": false
          }
        ],
        "step_warnings": []
      }
    },
    {
      "arguments": {},
      "description": "Removes a significant portion of the saved results from each run, helping to alleviate memory problems.",
      "measure_dir_name": "ServerDirectoryCleanup",
      "name": "server_directory_cleanup",
      "result": {
        "completed_at": "20230213T214719Z",
        "measure_class_name": "ServerDirectoryCleanup",
        "measure_display_name": "Server Directory Cleanup",
        "measure_name": "server_directory_cleanup",
        "measure_taxonomy": "Calibration",
        "measure_type": "ReportingMeasure",
        "measure_uid": "ec7d04ad-0b7b-495b-825a-e1b6d28d1d3f",
        "measure_version_id": "c9dc043c-2ea2-4960-b281-37b9cb49c491",
        "measure_version_modified": "20190409T200600Z",
        "measure_xml_checksum": "5F1EDF75",
        "started_at": "20230213T214719Z",
        "stderr": "",
        "stdout": "[OpenStudio.Measure] <0> OSArgumentVector is deprecated, use OpenStudio::Measure::OSArgumentVector instead.\n",
        "step_errors": [],
        "step_files": [],
        "step_final_condition": "The following files were in the local run directory following the execution of this measure: eplusout.end, eplusout.err, ., enduse_timeseries.csv, .., 000_ResidentialSimulationControls, 002_BuildingCharacteristicsReport, started.job, 001_BuildExistingModel, 003_SimulationOutputReport, eplusout.mtr, 002_SimulationOutputReport, stdout-expandobject, sqlite.err, eplusout.mtd, in.epw, 004_TimeseriesCSVExport, stdout-energyplus, eplustbl.htm, 002_TimeseriesCSVExport, measures.osw, run.log, measure_attributes.json, in.idf, 002_ServerDirectoryCleanup, eplusout.rdd, 005_ServerDirectoryCleanup.",
        "step_info": [
          "Deleted ./../eplusout.sql from the run directory.",
          "Deleted ./../eplusout.audit from the run directory.",
          "Deleted ./../in.osm from the run directory.",
          "Deleted ./../../in.osm from the run directory.",
          "Deleted ./../eplusout.bnd from the run directory.",
          "Deleted ./../eplusout.eio from the run directory.",
          "Deleted ./../eplusout.shd from the run directory.",
          "Deleted ./../eplusout.mdd from the run directory.",
          "Deleted ./../eplusout.eso from the run directory.",
          "Deleted ./../pre-preprocess.idf from the run directory."
        ],
        "step_initial_condition": "The following files were in the local run directory prior to the execution of this measure: eplusout.end, eplusout.err, ., enduse_timeseries.csv, .., 000_ResidentialSimulationControls, eplusout.shd, 002_BuildingCharacteristicsReport, started.job, 001_BuildExistingModel, 003_SimulationOutputReport, in.osm, eplusout.mtr, 002_SimulationOutputReport, stdout-expandobject, sqlite.err, eplusout.mtd, in.epw, eplusout.audit, 004_TimeseriesCSVExport, stdout-energyplus, eplustbl.htm, eplusout.sql, 002_TimeseriesCSVExport, measures.osw, run.log, eplusout.mdd, pre-preprocess.idf, measure_attributes.json, eplusout.eio, in.idf, eplusout.eso, 002_ServerDirectoryCleanup, eplusout.rdd, eplusout.bnd, 005_ServerDirectoryCleanup.",
        "step_result": "Success",
        "step_values": [],
        "step_warnings": []
      }
    }
  ],
  "updated_at": "20230213T214720Z",
  "weather_file": "Placeholder.epw"
}